138

H   16.294168   11.870290   53.512372
C   15.513081   11.475392   52.855454
H   14.534776   11.586148   53.333713
H   15.693806   10.409890   52.681129
C   15.531445   12.233816   51.543233
F   16.797149   12.155013   50.973881
F   15.353799   13.584433   51.797976
C   14.464580   11.728579   50.560877
H   13.482770   11.809355   51.049744
H   14.639213   10.655717   50.403243
C   14.385412   12.414734   49.192330
F   15.604873   12.327406   48.551518
F   14.160903   13.760722   49.366387
C   13.270537   11.804961   48.315175
H   12.313726   11.908103   48.842837
H   13.454555   10.727966   48.203348
C   13.127144   12.431845   46.923506
F   14.332280   12.335404   46.258654
F   12.877187   13.775687   47.067645
C   12.010981   11.801327   46.063577
H   11.046603   11.915961   46.574178
H   12.193496   10.722663   45.961610
C   11.883282   12.423427   44.662254
F   13.072950   12.330398   43.981534
F   11.595584   13.754120   44.780984
C   10.799367   11.741522   43.772212
F   9.583392   11.781659   44.453060
H   11.076391   10.686070   43.626008
C   10.607593   12.412037   42.376874
F   11.811937   12.326992   41.722411
F   10.346756   13.743161   42.549520
C   9.488788   11.772775   41.530657
H   8.541534   11.876414   42.073950
H   9.684700   10.697540   41.422704
C   9.343952   12.406133   40.130052
F   10.549515   12.327929   39.468364
F   9.085613   13.750311   40.275477
C   8.237942   11.768667   39.258984
H   7.279689   11.855586   39.788362
H   8.442706   10.698053   39.133176
C   8.094056   12.410603   37.864233
F   9.278346   12.323334   37.185755
F   7.807905   13.747065   37.994258
C   6.956286   11.779297   36.997492
H   6.001292   11.899464   37.532046
F   7.207489   10.414516   36.866193
C   6.814825   12.396549   35.568415
F   8.017890   12.321236   34.923627
F   6.540225   13.732930   35.735139
C   5.718046   11.731764   34.707099
H   4.760770   11.795295   35.242347
H   5.951296   10.665148   34.592500
C   5.550964   12.378305   33.311395
F   6.750519   12.325908   32.638768
F   5.273513   13.720842   33.464193
C   4.457130   11.726264   32.435136
H   3.495551   11.749758   32.965251
H   4.712537   10.669877   32.276573
C   4.290946   12.407114   31.060247
F   5.469303   12.333183   30.359542
F   4.009133   13.735912   31.217246
C   3.182638   11.756090   30.178099
F   1.980859   11.789349   30.879164
H   3.449535   10.702980   29.994928
C   2.970901   12.435150   28.793426
F   4.176484   12.360890   28.138152
F   2.681626   13.779805   28.964362
C   1.870108   11.827492   27.965718
H   1.000000   11.448837   28.496485
C   1.870108   11.827492   26.625902
F   1.453878   12.916841   25.946659
C   2.290399   10.687690   25.732793
H   2.928302   10.005945   26.308265
H   1.420754   10.095503   25.413484
C   3.057352   11.143833   24.481599
F   2.321951   12.048107   23.762791
F   4.199414   11.800656   24.886289
C   3.501841   9.970057   23.555591
H   4.267988   9.384465   24.087635
F   2.425537   9.099759   23.343218
C   4.080673   10.405022   22.168739
F   3.179693   11.190683   21.504884
F   5.172115   11.207711   22.415382
C   4.474588   9.183203   21.311887
H   5.237442   8.611155   21.856154
H   3.592326   8.535448   21.223521
C   5.015450   9.522859   19.907930
F   4.099097   10.308352   19.238670
F   6.141195   10.300482   20.051161
C   5.348998   8.286897   19.038229
H   6.098819   7.666242   19.544233
H   4.444626   7.672203   18.929365
C   5.885759   8.644730   17.636641
F   4.979815   9.424743   16.960162
F   7.028636   9.384050   17.763733
C   6.176785   7.400565   16.737205
F   7.067505   6.569893   17.416774
H   5.237777   6.845176   16.587378
C   6.786790   7.734860   15.335254
F   5.877547   8.527899   14.679805
F   7.916981   8.486494   15.501393
C   7.114583   6.484347   14.491976
H   7.835845   5.876784   15.053542
H   6.202556   5.882071   14.382495
C   7.682478   6.816711   13.091352
F   6.783348   7.612679   12.413308
F   8.812560   7.591112   13.236698
C   8.028605   5.582557   12.223899
H   8.787704   4.980071   12.740397
H   7.143936   4.945510   12.094450
C   8.572044   5.952116   10.828266
F   7.667742   6.728887   10.156733
F   9.714083   6.701982   10.961296
C   8.934976   4.708846   9.951686
H   9.693080   4.113851   10.483231
F   7.793767   3.918800   9.806446
C   9.482368   5.058807   8.532568
F   8.569131   5.841450   7.880897
F   10.609961   5.819405   8.713501
C   9.821375   3.827006   7.680268
H   10.569645   3.225436   8.213887
H   8.918108   3.211810   7.588776
C   10.368303   4.169055   6.279465
F   9.463459   4.955340   5.602829
F   11.511056   4.923562   6.413303
C   10.691388   2.942587   5.425247
H   11.414134   2.309835   5.954028
H   9.779272   2.344451   5.297943
C   11.263127   3.235987   4.025827
F   10.396306   3.995602   3.272638
F   12.425526   3.954318   4.090083
C   11.498726   1.912906   3.257265
F   12.346415   1.095380   4.018005
H   10.533987   1.388974   3.165303
C   12.115052   2.017183   1.849079
F   11.277338   2.692669   1.000000
F   13.308123   2.675553   1.860590
H   12.276171   1.000000   1.452028
