330

H   3.87659774467  0.444427906840   28.2897310664
C   3.78798511417   1.17973013854   27.5048314783
C   3.94534756729   2.45131551217   28.2200481596
F   2.92356584727   2.51365287241   29.1454033344
F   5.13372731582   2.38265485895   28.9343880172
H   2.77872066549   1.15026987745   27.0765597337
H   4.57306860195   1.07074347627   26.7501210853
C   3.95157976683   3.63918649532   27.2984967881
C   3.87295814337   4.88979494508   28.1006333862
F   2.66470362566   4.88895061496   28.7775673850
F   4.88088011555   4.87857765833   29.0454257871
H   3.10790942002   3.57656411638   26.5909994303
H   4.87001993675   3.61584642548   26.6994204194
C   3.94659298616   6.15826978976   27.3236686824
C   3.92495537888   7.33823074462   28.2631103185
F   2.84819604228   7.29023948395   29.1155748159
F   5.05602420795   7.34960199001   29.0454279713
H   3.08718705440   6.21396326302   26.6353810631
H   4.87059536455   6.18387730582   26.7310916857
C   3.82720494694   8.59047476286   27.4621373822
C   3.89197245393   9.84668707391   28.2719136924
F   2.82274464055   9.89800473127   29.1283351057
F   5.03904736969   9.86727691515   29.0345717032
H   2.84556362646   8.54531766417   26.9624455834
H   4.64923162783   8.59616040247   26.7367723850
C   3.87766728627   11.0324458117   27.3634623512
C   3.90701223700   12.3369050341   28.0916559920
F   2.77790019795   12.4605390471   28.8731494018
F   4.99672062242   12.4112385529   28.9335071110
H   2.96552705822   11.0236309443   26.7377642065
H   4.74337523946   10.9845779997   26.6883707371
C   3.99294232222   13.4452729328   27.0970099014
C   3.95451133288   14.7875745266   27.7043590775
F   2.78934050428   15.0024720950   28.4036554374
F   5.01158775634   15.0142642094   28.5528142010
H   3.17290400079   13.3727028670   26.3620132068
H   4.92624318940   13.3468289753   26.5262358706
H   4.00996024465   15.5305492506   26.9094196363
Pb   4.16095759596 0.000244546752004   13.8290755362
Pb 0.000360257158794   4.09203969147   13.8298250608
N   4.79789795098   4.67428191703   16.2773518658
N   3.52439049745   3.50481233361   11.3747858749
N   7.66478970797   3.50364050549   2.40782987927
N  0.595692765348   4.71098186799   25.2023001671
N   3.06774990608  0.296720192530   24.6692929176
N   4.82088845188   7.59541995913   2.40949881725
N  0.638583536108   7.59652709547   11.3762302312
N   7.68739523852  0.582002449443   16.2768441753
H   4.67632995152   5.68496083037   16.5066536615
H   3.64602514611   2.49482470701   11.1403396676
H   7.72135797356   2.49693290711   2.70251998323
H  0.514385567036   5.72254087481   24.9048076485
H   3.08706233589   1.34534310061   24.5372932122
H   4.76475636604   6.58920019304   2.70470918393
H  0.517123533451   6.58680955346   11.1413301668
H   7.80725229815   1.59299068124   16.5065472551
H   4.68773541416   4.57819420090   15.2554555007
H   3.63433230821   3.59782291226   12.3965308532
H   7.82116519539   3.53066567389   1.38263261204
H  0.458314488210   4.68062328931   26.2308127350
H   2.81592938421  0.114242577401   25.6514204697
H   4.66484308582   7.62269388522   1.38421917065
H  0.528929793275   7.68924210197   12.3982918016
H   7.79737694553  0.486533141966   15.2547497963
H   5.78717703345   4.40465692891   16.5063424367
H   2.53599018703   3.77563682343   11.1433452228
H   6.67601723788   3.82601967621   2.56797272671
H   1.58659345514   4.40679371609   25.0076137103
H   2.25741076809   16.2815838291   24.1303443199
H   5.80918854418   7.91870627187   2.56932666446
H   1.62659267327   7.86758043589   11.1439994591
H   6.69896088768  0.310797348028   16.5059435038
H   3.94911517893   2.79221231861   16.6221784103
H   4.37449250743   5.38774827848   11.0340289471
H  0.147527085471   5.40724546398   2.78051373389
H   8.15315096194   2.78654865443   24.8477583543
H   4.01950995566   7.12072619441   24.6706280499
H   4.01797573857   1.31606515518   2.78150984193
H   8.11279176631   1.29773204711   11.0337990592
H  0.217780102834   6.88423968253   16.6231995589
H   2.80144866107   4.14940038390   16.6875451726
H   5.52117596764   4.02967518458   10.9631489053
H   1.32556221404   4.07720711590   2.84071285908
H   6.94717054546   4.09730161461   24.7680823304
H   5.25930430280   8.41639705285   24.6370218804
H   2.83858403271   16.3552010573   2.83995882947
H   6.96404193427   16.3088812565   10.9655367867
H   1.36403725817   8.24311778670   16.6846286718
H   5.05700484460   3.59733131611   18.7097937824
H   3.26282154194   4.58480046229   8.94584369447
H   7.42180585202   4.56093198173   4.91618869046
H  0.874719436138   3.63678597218   22.7179290404
H   3.34788801896   7.69507557148   22.3490770900
H   5.06212175803  0.469125351919   4.91809317986
H  0.899749986948  0.491051923221   8.94592009487
H   7.43353975691   7.69248549138   18.7086768767
H   3.91224432499   4.93776920608   18.8216442653
H   4.41026881973   3.24707319119   8.83036853371
H  0.263370371284   3.23855515289   4.96754880498
H   8.01779887594   4.94393745516   22.6542932609
H   4.61923622564  0.816026398928   22.4682569034
H   3.89941082785   7.33077179368   4.96850254582
H   8.07487562855   7.33801274449   8.83213567907
H  0.255238133300  0.848727796668   18.8208661929
H   3.20351077958   1.95806963597   18.9442978283
H   5.10842703179   6.22934877079   8.72299780758
H  0.937946301502   6.23129152722   5.10026393784
H   7.37790852882   1.94225921680   22.5261408579
H   5.14411122021   5.97488008054   22.4474344336
H   3.22305629359   2.13945690576   5.10020118516
H   7.37880255863   2.13681405871   8.72100184002
H  0.959496883577   6.05073933422   18.9451639358
H   2.02394519491   3.26232498806   19.0024450318
H   6.29442542565   4.92826970560   8.66307798118
H   2.13617273909   4.94019230487   5.13413048463
H   6.16631585265   3.22400559538   22.4814846885
H   6.37430151261   7.24023823421   22.3942884738
H   2.02559491015  0.847851960578   5.13379733711
H   6.19042923947  0.837473465751   8.66274040470
H   2.14290507950   7.35260629586   19.0013749845
H   2.66189909601   2.37558887235   21.3217200980
H   5.68235323941   5.80031059068   6.34622159117
H   1.49940198403   5.80667201598   7.47409224552
H   6.82712050502   2.36759684569   20.1449180927
H   5.79363894783   6.32972075710   20.0433781208
H   2.66177300733   1.71643104708   7.47361397934
H   6.81140425238   1.70946885687   6.34412145011
H   1.49869342425   6.47202828351   21.3256079872
H   2.98177253961   4.10551457245   21.1515017829
H   5.34322647016   4.07170819738   6.52948249380
H   1.20082340259   4.07462947278   7.29336727663
H   7.11876041828   4.09924395063   20.3333547723
H   5.50013051663   8.06976997305   20.2038732245
H   2.95750140166   16.3521032211   7.29367472611
H   7.13210745118   16.3473006255   6.52875361197
H   1.18114741785   8.20331521798   21.1461730425
H   4.31292832075   2.94844885142   21.0445575918
H   4.02234658463   5.24622957930   6.60024978607
H   8.18202828943   5.21713942094   7.19536154340
H  0.141788503738   2.96612845560   20.4420078127
H   4.15006500721   6.94387040167   20.2773938084
H   4.30103853813   1.12339442973   7.19635576428
H  0.145631749726   1.13547942617   6.60312881447
H   8.17442748091   7.04563576909   21.0446333125
C   3.80661035693   3.81643189622   16.9864542491
C   4.51535362390   4.36380772801   10.6691514171
C  0.319535622380   4.38612820330   3.14834756839
C   7.96086352472   3.80210637916   24.4736099015
C   4.31629076500   8.06919121237   24.2002353975
C   3.84454038424  0.295053104966   3.14894062119
C   7.97019576907  0.273523925008   10.6700888717
C  0.359727883259   7.90925018052   16.9855461156
C   4.01982658188   3.89491564810   18.4869495680
C   4.30006139199   4.28859362253   9.16990052043
C  0.130606362133   4.28377418544   4.65168795621
C   8.15951744016   3.90066775109   22.9724119656
C   4.35607898470   7.96869999856   22.6954424552
C   4.03146079930  0.192277221070   4.65266554753
C   8.18413660029  0.196024251113   9.17109898276
C  0.148444229364   7.98938358384   18.4862067133
C   3.05884511988   2.99953952491   19.2661883063
C   5.25953153846   5.18921967330   8.39702869811
C   1.10033896008   5.18844960547   5.41368193716
C   7.20630603651   2.98365894313   22.2100741209
C   5.34609661215   6.99450859461   22.0864430565
C   3.06115793088   1.09666469730   5.41387058162
C   7.22573728599   1.09657826476   8.39664575485
C   1.10728386542   7.09228426218   19.2654573780
C   3.26206116404   3.11315218613   20.7729848970
C   5.06707552368   5.07178779882   6.88901009876
C  0.910109219179   5.06522638216   6.92202922290
C   7.40853020963   3.10889734133   20.7050877648
C   5.19766387826   7.08130863913   20.5720511910
C   3.25046802113  0.974005235958   6.92221853590
C   7.41915998072  0.976423873890   6.88871139962
C  0.903121751299   7.20845421149   20.7715960148
Br   2.62031684625   5.58849149203   13.8937773439
Br   5.70177929185   2.59575148962   13.7607095330
Br   6.78200675612   6.68715446893   13.7610187661
Br   1.54153028067   1.49640932852   13.8931685116
Br   3.86764200260  0.165247730966   10.7652086445
Br   4.45257730387   8.02272927473   16.8826046408
Br   8.02944580789   3.92723190246   16.8861860107
Br  0.294087882218   4.25644594696   10.7674302789
Pb   4.16094634447   8.18402922180   13.8295378994
Pb 0.000266665969204   12.2760233738   13.8297695121
N   4.79832080451   12.8596269612   16.2744996820
N   3.52388922205   11.6889610801   11.3757409600
N   7.66534028192   11.6853423447   2.40956401908
N  0.577237063998   12.8795564430   25.1933862016
N   3.23391602559   9.06617471957   24.5118174978
N   4.82129828347   15.7796738829   2.40949842579
N  0.638750446404   15.7819987657   11.3756598577
N   7.68821042934   8.76488137699   16.2771327248
H   4.67653196784   13.8704265576   16.5035837925
H   3.64580100148   10.6789825770   11.1411931860
H   7.72253276913   10.6788152091   2.70441913913
H  0.481049749584   13.8925518950   24.9012216067
H   3.27389282909   9.91460153543   23.9076136927
H   4.76450647283   14.7736822198   2.70600947675
H  0.516506400239   14.7723114674   11.1411490879
H   7.80805192997   9.77584660110   16.5065930826
H   4.68850737407   12.7631060148   15.2526189714
H   3.63316089405   11.7817787922   12.3978822589
H   7.82153826594   11.7129059011   1.38428515666
H  0.448536584729   12.8357095054   26.2230726171
H   3.26763099133   9.41821950211   25.4712211256
H   4.66485660046   15.8056345214   1.38406185081
H  0.529475822782   15.8750037524   12.3977708834
H   7.79824629082   8.66911874657   15.2553052474
H   5.78725000325   12.5897578387   16.5043498320
H   2.53581599683   11.9596859941   11.1436965228
H   6.67649962856   12.0061250664   2.56971234178
H   1.57501099353   12.5938723223   24.9811323123
H   2.27931392611   8.61469036055   24.4102587043
H   5.81014808941   16.1013809344   2.56929201258
H   1.62737038257   16.0522601638   11.1438020299
H   6.69965982185   8.49389307301   16.5066723709
H   3.94965711961   10.9775031708   16.6197315661
H   4.37391970967   13.5724645161   11.0358177987
H  0.146250313882   13.5899139740   2.78140314286
H   8.15614712305   10.9476323095   24.8311459785
H   4.27645989985   14.9471025360   24.5368547213
H   4.01674319549   9.49919483841   2.78086762602
H   8.10988600645   9.47944645707   11.0366010105
H  0.217743870227   15.0694912031   16.6218000430
H   2.80188199387   12.3345248257   16.6824974826
H   5.52106868375   12.2140354681   10.9658660630
H   1.32562359097   12.2612560335   2.84318683152
H   6.93734653341   12.2448919704   24.7548018591
H   5.18128829994  0.105260627919   24.7574277285
H   2.83815371174   8.16978494520   2.84108005180
H   6.96344025292   8.12052616780   10.9654273956
H   1.36302451601 0.0610837038795   16.6841983119
H   5.05660860530   11.7823075124   18.7062987334
H   3.26421731990   12.7695557506   8.94698711122
H   7.42116474572   12.7425846163   4.91771003458
H  0.870046853149   11.8266198382   22.7041918833
H   3.42095693391   15.9042251223   22.3281678376
H   5.06340360859   8.65252422187   4.91720318887
H  0.898955170135   8.67730061222   8.94709128869
H   7.43381030820   15.8744398851   18.7085347951
H   3.91216433664   13.1233155168   18.8190318050
H   4.41080905824   11.4298786050   8.83201459608
H  0.265172678718   11.4223379144   4.96913123623
H   8.00455099963   13.1218990650   22.6531535546
H   4.55355325429   8.97441494084   22.2922134105
H   3.89851011835   15.5148185918   4.96814660194
H   8.07293024959   15.5219777853   8.83306150273
H  0.258173019588   9.03258283729   18.8210658713
H   3.20165682539   10.1441287343   18.9353478951
H   5.11185965579   14.4113267732   8.72368801770
H  0.933533100928   14.4160581922   5.10196922243
H   7.37934132005   10.1175724301   22.5136491309
H   5.22202829108   14.1756648956   22.3719079263
H   3.22513276467   10.3238782956   5.10031541301
H   7.37537371125   10.3190659147   8.72336501794
H  0.964415759895   14.2365458507   18.9432863954
H   2.02305763989   11.4505442911   18.9956822861
H   6.29633004813   13.1098298432   8.66357848040
H   2.13488414256   13.1264613286   5.13433425803
H   6.16406903064   11.3945091141   22.4722990842
H   6.43648297916   15.4566923312   22.3239919678
H   2.02672186088   9.03355361457   5.13235618456
H   6.18879583711   9.01940004828   8.66496783740
H   2.14472630102   15.5407599051   18.9972446349
H   2.64670600210   10.5588372232   21.3046801713
H   5.67815767563   13.9846019362   6.34551368823
H   1.50131394275   13.9897642647   7.47457735277
H   6.82078972098   10.5523236343   20.1321718722
H   5.79791718653   14.6029600533   19.9678182823
H   2.66104034251   9.90204809262   7.47187382561
H   6.80789899199   9.89312785903   6.34683140047
H   1.50959597225   14.6594489598   21.3223153951
H   2.97862908163   12.2880088957   21.1486490655
H   5.35011743942   12.2540851459   6.52998455113
H   1.20463544692   12.2582975916   7.29316886715
H   7.11618813622   12.2830475868   20.3277747907
H   5.44368753564   16.3244918927   20.1652225961
H   2.95763035670   8.16865565771   7.29310299362
H   7.13319871473   8.16231141083   6.53058181744
H   1.18602854301 0.0229324288519   21.1415730538
H   4.30553297086   11.1215034239   21.0436198830
H   4.01946472423   13.4159338432   6.60395399019
H   8.18114332441   13.3948961643   7.19800015064
H  0.136260624338   11.1434274528   20.4279551433
H   4.14545826672   15.1449518035   20.2802186923
H   4.30011802430   9.30671782286   7.19780934610
H  0.142314075314   9.32445375490   6.60421176644
H   8.18273830278   15.2292627683   21.0459982423
C   3.80688537727   12.0021751435   16.9827499381
C   4.51513255129   12.5481998117   10.6712320236
C  0.319122024863   12.5692084820   3.15000542974
C   7.95513596955   11.9638769558   24.4620019415
C   4.34149198167   15.9998851795   24.2357272346
C   3.84403332351   8.47828530090   3.14899684785
C   7.96917559282   8.45540527983   10.6710320678
C  0.358999173105   16.0943633570   16.9846926509
C   4.01978903714   12.0808702346   18.4833813240
C   4.30108183533   12.4719921963   9.17145657327
C  0.130277604989   12.4671375884   4.65321298162
C   8.15301497362   12.0768628981   22.9622756689
C   4.41739702727   16.1356362544   22.7342376884
C   4.03217533259   8.37607554157   4.65235149897
C   8.18388274422   8.37972825497   9.17153131256
C  0.148056446454   16.1735127703   18.4856825638
C   3.05729971329   11.1855267749   19.2591168849
C   5.26140789148   13.3709844527   8.39826782140
C   1.09875419097   13.3732687734   5.41453793543
C   7.20448902543   11.1585642016   22.1983043630
C   5.40312976141   15.2095235932   22.0403986884
C   3.06211106107   9.28105949655   5.41345359715
C   7.22376522547   9.27944919628   8.39859166025
C   1.11016914209   15.2785621627   19.2632754268
C   3.25660070174   11.2965296121   20.7663914530
C   5.06723745482   13.2522439728   6.89001384254
C  0.910741510672   13.2484826335   6.92328601008
C   7.40487985357   11.2901599371   20.6944332492
C   5.19667419329   15.3209566684   20.5352910060
C   3.24951506764   9.15839797913   6.92212247123
C   7.41677106426   9.16033925920   6.89069249382
C  0.910034199584   15.3942594514   20.7700775879
Br   2.62007198718   13.7725018604   13.8932238204
Br   5.70176475824   10.7796983312   13.7606436023
Br   6.78211667969   14.8711474269   13.7606958534
Br   1.54152687014   9.68041684766   13.8931280007
Br   3.86743957431   8.34851268590   10.7666440421
Br   4.45134829702   16.2055494361   16.8798114594
Br   8.02918296998   12.1114415272   16.8869310274
Br  0.292981394519   12.4405673310   10.7683893239
lattice vectors
   8.32199954990    0.00000000000    0.00000000000
   0.00000000000    16.3680000306    0.00000000000
   0.00000000000    0.00000000000    33.6599998474
