138

H   16.488665   2.585240   53.512372
C   15.707578   2.190342   52.855454
H   14.729273   2.301098   53.333713
H   15.888303   1.124840   52.681129
C   15.725942   2.948766   51.543233
F   16.991646   2.869963   50.973881
F   15.548296   4.299383   51.797976
C   14.659077   2.443529   50.560877
H   13.677267   2.524305   51.049744
H   14.833710   1.370667   50.403243
C   14.579910   3.129685   49.192330
F   15.799370   3.042356   48.551518
F   14.355400   4.475673   49.366387
C   13.465034   2.519912   48.315175
H   12.508223   2.623053   48.842837
H   13.649052   1.442916   48.203348
C   13.321641   3.146795   46.923506
F   14.526777   3.050354   46.258654
F   13.071684   4.490638   47.067645
C   12.205478   2.516277   46.063577
H   11.241101   2.630911   46.574178
H   12.387994   1.437613   45.961610
C   12.077779   3.138377   44.662254
F   13.267447   3.045348   43.981534
F   11.790082   4.469071   44.780984
C   10.993864   2.456473   43.772212
F   9.777889   2.496609   44.453060
H   11.270888   1.401020   43.626008
C   10.802091   3.126988   42.376874
F   12.006434   3.041942   41.722411
F   10.541253   4.458112   42.549520
C   9.683285   2.487725   41.530657
H   8.736032   2.591364   42.073950
H   9.879198   1.412490   41.422704
C   9.538449   3.121083   40.130052
F   10.744012   3.042879   39.468364
F   9.280111   4.465261   40.275477
C   8.432439   2.483617   39.258984
H   7.474186   2.570536   39.788362
H   8.637203   1.413003   39.133176
C   8.288554   3.125553   37.864233
F   9.472843   3.038284   37.185755
F   8.002402   4.462015   37.994258
C   7.150784   2.494247   36.997492
H   6.195789   2.614415   37.532046
F   7.401987   1.129466   36.866193
C   7.009322   3.111499   35.568415
F   8.212387   3.036186   34.923627
F   6.734722   4.447880   35.735139
C   5.912543   2.446714   34.707099
H   4.955268   2.510245   35.242347
H   6.145793   1.380098   34.592500
C   5.745461   3.093255   33.311395
F   6.945016   3.040859   32.638768
F   5.468010   4.435792   33.464193
C   4.651627   2.441214   32.435136
H   3.690048   2.464709   32.965251
H   4.907035   1.384827   32.276573
C   4.485444   3.122065   31.060247
F   5.663800   3.048133   30.359542
F   4.203630   4.450862   31.217246
C   3.377135   2.471040   30.178099
F   2.175356   2.504299   30.879164
H   3.644033   1.417930   29.994928
C   3.165398   3.150100   28.793426
F   4.370981   3.075840   28.138152
F   2.876124   4.494755   28.964362
C   2.064606   2.542442   27.965718
H   1.194497   2.163787   28.496485
C   2.064606   2.542442   26.625902
F   1.000000   3.018409   25.946659
C   3.167758   2.033670   25.732793
H   4.100890   2.002670   26.308265
H   2.971565   1.000000   25.413484
C   3.387533   2.898530   24.481599
F   2.228108   3.017942   23.762791
F   3.730649   4.170535   24.886289
C   4.531820   2.382847   23.555591
H   5.487644   2.510518   24.087635
F   4.386152   1.006391   23.343218
C   4.633549   3.099709   22.168739
F   3.440914   3.018167   21.504884
F   4.837728   4.439062   22.415382
C   5.776045   2.514292   21.311887
H   6.719964   2.649213   21.856154
H   5.610224   1.432408   21.223521
C   5.918320   3.136913   19.907930
F   4.714933   3.044382   19.238670
F   6.164479   4.482798   20.051161
C   7.028131   2.498810   19.038229
H   7.997204   2.590144   19.544233
H   6.823297   1.424668   18.929365
C   7.154652   3.131383   17.636641
F   5.962500   3.042337   16.960162
F   7.440010   4.462298   17.763733
C   8.240196   2.457413   16.737205
F   9.457404   2.499873   17.416774
H   7.968936   1.400714   16.587378
C   8.435152   3.125133   15.335254
F   7.231458   3.042965   14.679805
F   8.702833   4.455784   15.501393
C   9.551183   2.472672   14.491976
H   10.490804   2.553069   15.053542
H   9.332156   1.401897   14.382495
C   9.717729   3.109251   13.091352
F   8.519113   3.036305   12.413308
F   9.969234   4.455923   13.236698
C   10.835156   2.481321   12.223899
H   11.797942   2.592063   12.740397
H   10.660061   1.405306   12.094450
C   10.958108   3.126908   10.828266
F   9.769410   3.036730   10.156733
F   11.235416   4.464687   10.961296
C   12.093864   2.504415   9.951686
H   13.050649   2.619751   10.483231
F   11.845554   1.138811   9.806446
C   12.233469   3.138939   8.532568
F   11.034301   3.046596   7.880897
F   12.492974   4.474092   8.713501
C   13.344198   2.507639   7.680268
H   14.298679   2.611371   8.213887
H   13.140500   1.433923   7.588776
C   13.489069   3.136241   6.279465
F   12.293261   3.052406   5.602829
F   13.763600   4.477806   6.413303
C   14.584769   2.497453   5.425247
H   15.543250   2.561088   5.954028
H   14.362751   1.429542   5.297943
C   14.781584   3.109198   4.025827
F   13.631520   3.033392   3.272638
F   15.095587   4.439075   4.090083
C   15.883737   2.340232   3.257265
F   17.061222   2.361560   4.018005
H   15.572039   1.287582   3.165303
C   16.245811   2.849775   1.849079
F   15.175816   2.735063   1.000000
F   16.623902   4.158941   1.860590
H   17.078996   2.244447   1.452028
