216

  C        0.0000      2.7653      0.0000      0.0000      0.0000      0.0000
  C        4.4760      0.2672      0.0000      0.0000      0.0000      0.0000
  C        0.0000      1.9369      1.2938      0.0000      0.0000      0.0000
  C        4.4760      4.4349      1.2938      0.0000      0.0000      0.0000
  Cl       1.1032      3.6052      0.0000      0.0000      0.0000      0.0000
  F        7.8488      3.6052      0.0000      0.0000      0.0000      0.0000
  Cl       5.5792      1.1072      0.0000      0.0000      0.0000      0.0000
  F        3.3728      1.1072      0.0000      0.0000      0.0000      0.0000
  H        8.0679      1.2880      1.2938      0.0000      0.0000      0.0000
  H        0.8841      1.2880      1.2938      0.0000      0.0000      0.0000
  H        3.5919      3.7861      1.2938      0.0000      0.0000      0.0000
  H        5.3602      3.7861      1.2938      0.0000      0.0000      0.0000
  C        0.0000      2.7653      2.5877      0.0000      0.0000      0.0000
  C        4.4760      0.2672      2.5877      0.0000      0.0000      0.0000
  C        0.0000      1.9369      3.8815      0.0000      0.0000      0.0000
  C        4.4760      4.4349      3.8815      0.0000      0.0000      0.0000
  F        1.1032      3.6052      2.5877      0.0000      0.0000      0.0000
  F        7.8488      3.6052      2.5877      0.0000      0.0000      0.0000
  F        5.5792      1.1072      2.5877      0.0000      0.0000      0.0000
  F        3.3728      1.1072      2.5877      0.0000      0.0000      0.0000
  F        8.0679      1.2880      3.8815      0.0000      0.0000      0.0000
  H        0.8841      1.2880      3.8815      0.0000      0.0000      0.0000
  F        3.5919      3.7861      3.8815      0.0000      0.0000      0.0000
  H        5.3602      3.7861      3.8815      0.0000      0.0000      0.0000
  C        0.0000      2.7653      5.1753      0.0000      0.0000      0.0000
  C        4.4760      0.2672      5.1753      0.0000      0.0000      0.0000
  C        0.0000      1.9369      6.4692      0.0000      0.0000      0.0000
  C        4.4760      4.4349      6.4692      0.0000      0.0000      0.0000
  F        1.1032      3.6052      5.1753      0.0000      0.0000      0.0000
  F        7.8488      3.6052      5.1753      0.0000      0.0000      0.0000
  F        5.5792      1.1072      5.1753      0.0000      0.0000      0.0000
  F        3.3728      1.1072      5.1753      0.0000      0.0000      0.0000
  F        8.0679      1.2880      6.4692      0.0000      0.0000      0.0000
  H        0.8841      1.2880      6.4692      0.0000      0.0000      0.0000
  F        3.5919      3.7861      6.4692      0.0000      0.0000      0.0000
  H        5.3602      3.7861      6.4692      0.0000      0.0000      0.0000
  C        0.0000      2.7653      7.7630      0.0000      0.0000      0.0000
  C        4.4760      0.2672      7.7630      0.0000      0.0000      0.0000
  C        0.0000      1.9369      9.0569      0.0000      0.0000      0.0000
  C        4.4760      4.4349      9.0569      0.0000      0.0000      0.0000
  F        1.1032      3.6052      7.7630      0.0000      0.0000      0.0000
  F        7.8488      3.6052      7.7630      0.0000      0.0000      0.0000
  F        5.5792      1.1072      7.7630      0.0000      0.0000      0.0000
  F        3.3728      1.1072      7.7630      0.0000      0.0000      0.0000
  F        8.0679      1.2880      9.0569      0.0000      0.0000      0.0000
  H        0.8841      1.2880      9.0569      0.0000      0.0000      0.0000
  F        3.5919      3.7861      9.0569      0.0000      0.0000      0.0000
  H        5.3602      3.7861      9.0569      0.0000      0.0000      0.0000
  C        0.0000      2.7653     10.3507      0.0000      0.0000      0.0000
  C        4.4760      0.2672     10.3507      0.0000      0.0000      0.0000
  C        0.0000      1.9369     11.6445      0.0000      0.0000      0.0000
  C        4.4760      4.4349     11.6445      0.0000      0.0000      0.0000
  F        1.1032      3.6052     10.3507      0.0000      0.0000      0.0000
  F        7.8488      3.6052     10.3507      0.0000      0.0000      0.0000
  F        5.5792      1.1072     10.3507      0.0000      0.0000      0.0000
  F        3.3728      1.1072     10.3507      0.0000      0.0000      0.0000
  F        8.0679      1.2880     11.6445      0.0000      0.0000      0.0000
  H        0.8841      1.2880     11.6445      0.0000      0.0000      0.0000
  F        3.5919      3.7861     11.6445      0.0000      0.0000      0.0000
  H        5.3602      3.7861     11.6445      0.0000      0.0000      0.0000
  C        0.0000      2.7653     12.9384      0.0000      0.0000      0.0000
  C        4.4760      0.2672     12.9384      0.0000      0.0000      0.0000
  C        0.0000      1.9369     14.2322      0.0000      0.0000      0.0000
  C        4.4760      4.4349     14.2322      0.0000      0.0000      0.0000
  F        1.1032      3.6052     12.9384      0.0000      0.0000      0.0000
  F        7.8488      3.6052     12.9384      0.0000      0.0000      0.0000
  F        5.5792      1.1072     12.9384      0.0000      0.0000      0.0000
  F        3.3728      1.1072     12.9384      0.0000      0.0000      0.0000
  F        8.0679      1.2880     14.2322      0.0000      0.0000      0.0000
  H        0.8841      1.2880     14.2322      0.0000      0.0000      0.0000
  F        3.5919      3.7861     14.2322      0.0000      0.0000      0.0000
  H        5.3602      3.7861     14.2322      0.0000      0.0000      0.0000
  C        0.0000      2.7653     15.5260      0.0000      0.0000      0.0000
  C        4.4760      0.2672     15.5260      0.0000      0.0000      0.0000
  C        0.0000      1.9369     16.8199      0.0000      0.0000      0.0000
  C        4.4760      4.4349     16.8199      0.0000      0.0000      0.0000
  F        1.1032      3.6052     15.5260      0.0000      0.0000      0.0000
  F        7.8488      3.6052     15.5260      0.0000      0.0000      0.0000
  F        5.5792      1.1072     15.5260      0.0000      0.0000      0.0000
  F        3.3728      1.1072     15.5260      0.0000      0.0000      0.0000
  H        0.8841      1.2880     16.8199      0.0000      0.0000      0.0000
  H        8.0679      1.2880     16.8199      0.0000      0.0000      0.0000
  H        3.5919      3.7861     16.8199      0.0000      0.0000      0.0000
  H        5.3602      3.7861     16.8199      0.0000      0.0000      0.0000
  C        0.0000      2.7653     18.1137      0.0000      0.0000      0.0000
  C        4.4760      0.2672     18.1137      0.0000      0.0000      0.0000
  C        0.0000      1.9369     19.4075      0.0000      0.0000      0.0000
  C        4.4760      4.4349     19.4075      0.0000      0.0000      0.0000
  F        1.1032      3.6052     18.1137      0.0000      0.0000      0.0000
  F        7.8488      3.6052     18.1137      0.0000      0.0000      0.0000
  F        5.5792      1.1072     18.1137      0.0000      0.0000      0.0000
  F        3.3728      1.1072     18.1137      0.0000      0.0000      0.0000
  H        0.8841      1.2880     19.4075      0.0000      0.0000      0.0000
  H        8.0679      1.2880     19.4075      0.0000      0.0000      0.0000
  H        3.5919      3.7861     19.4075      0.0000      0.0000      0.0000
  H        5.3602      3.7861     19.4075      0.0000      0.0000      0.0000
  C        0.0000      2.7653     20.7014      0.0000      0.0000      0.0000
  C        4.4760      0.2672     20.7014      0.0000      0.0000      0.0000
  C        0.0000      1.9369     21.9952      0.0000      0.0000      0.0000
  C        4.4760      4.4349     21.9952      0.0000      0.0000      0.0000
  F        1.1032      3.6052     20.7014      0.0000      0.0000      0.0000
  F        7.8488      3.6052     20.7014      0.0000      0.0000      0.0000
  F        5.5792      1.1072     20.7014      0.0000      0.0000      0.0000
  F        3.3728      1.1072     20.7014      0.0000      0.0000      0.0000
  H        0.8841      1.2880     21.9952      0.0000      0.0000      0.0000
  H        8.0679      1.2880     21.9952      0.0000      0.0000      0.0000
  H        3.5919      3.7861     21.9952      0.0000      0.0000      0.0000
  H        5.3602      3.7861     21.9952      0.0000      0.0000      0.0000
  C        0.0000      2.7653     23.2891      0.0000      0.0000      0.0000
  C        4.4760      0.2672     23.2891      0.0000      0.0000      0.0000
  C        0.0000      1.9369     24.5829      0.0000      0.0000      0.0000
  C        4.4760      4.4349     24.5829      0.0000      0.0000      0.0000
  F        1.1032      3.6052     23.2891      0.0000      0.0000      0.0000
  F        7.8488      3.6052     23.2891      0.0000      0.0000      0.0000
  F        5.5792      1.1072     23.2891      0.0000      0.0000      0.0000
  F        3.3728      1.1072     23.2891      0.0000      0.0000      0.0000
  H        0.8841      1.2880     24.5829      0.0000      0.0000      0.0000
  H        8.0679      1.2880     24.5829      0.0000      0.0000      0.0000
  H        3.5919      3.7861     24.5829      0.0000      0.0000      0.0000
  H        5.3602      3.7861     24.5829      0.0000      0.0000      0.0000
  C        0.0000      2.7653     25.8767      0.0000      0.0000      0.0000
  C        4.4760      0.2672     25.8767      0.0000      0.0000      0.0000
  C        0.0000      1.9369     27.1706      0.0000      0.0000      0.0000
  C        4.4760      4.4349     27.1706      0.0000      0.0000      0.0000
  F        1.1032      3.6052     25.8767      0.0000      0.0000      0.0000
  F        7.8488      3.6052     25.8767      0.0000      0.0000      0.0000
  F        5.5792      1.1072     25.8767      0.0000      0.0000      0.0000
  F        3.3728      1.1072     25.8767      0.0000      0.0000      0.0000
  H        0.8841      1.2880     27.1706      0.0000      0.0000      0.0000
  H        8.0679      1.2880     27.1706      0.0000      0.0000      0.0000
  H        3.5919      3.7861     27.1706      0.0000      0.0000      0.0000
  H        5.3602      3.7861     27.1706      0.0000      0.0000      0.0000
  C        0.0000      2.7653     28.4644      0.0000      0.0000      0.0000
  C        4.4760      0.2672     28.4644      0.0000      0.0000      0.0000
  C        0.0000      1.9369     29.7582      0.0000      0.0000      0.0000
  C        4.4760      4.4349     29.7582      0.0000      0.0000      0.0000
  F        1.1032      3.6052     28.4644      0.0000      0.0000      0.0000
  F        7.8488      3.6052     28.4644      0.0000      0.0000      0.0000
  F        5.5792      1.1072     28.4644      0.0000      0.0000      0.0000
  F        3.3728      1.1072     28.4644      0.0000      0.0000      0.0000
  H        0.8841      1.2880     29.7582      0.0000      0.0000      0.0000
  H        8.0679      1.2880     29.7582      0.0000      0.0000      0.0000
  H        3.5919      3.7861     29.7582      0.0000      0.0000      0.0000
  H        5.3602      3.7861     29.7582      0.0000      0.0000      0.0000
  C        0.0000      2.7653     31.0521      0.0000      0.0000      0.0000
  C        4.4760      0.2672     31.0521      0.0000      0.0000      0.0000
  C        0.0000      1.9369     32.3459      0.0000      0.0000      0.0000
  C        4.4760      4.4349     32.3459      0.0000      0.0000      0.0000
  F        1.1032      3.6052     31.0521      0.0000      0.0000      0.0000
  F        7.8488      3.6052     31.0521      0.0000      0.0000      0.0000
  F        5.5792      1.1072     31.0521      0.0000      0.0000      0.0000
  F        3.3728      1.1072     31.0521      0.0000      0.0000      0.0000
  H        0.8841      1.2880     32.3459      0.0000      0.0000      0.0000
  H        8.0679      1.2880     32.3459      0.0000      0.0000      0.0000
  H        3.5919      3.7861     32.3459      0.0000      0.0000      0.0000
  H        5.3602      3.7861     32.3459      0.0000      0.0000      0.0000
  C        0.0000      2.7653     33.6397      0.0000      0.0000      0.0000
  C        4.4760      0.2672     33.6397      0.0000      0.0000      0.0000
  C        0.0000      1.9369     34.9336      0.0000      0.0000      0.0000
  C        4.4760      4.4349     34.9336      0.0000      0.0000      0.0000
  F        1.1032      3.6052     33.6397      0.0000      0.0000      0.0000
  F        7.8488      3.6052     33.6397      0.0000      0.0000      0.0000
  F        5.5792      1.1072     33.6397      0.0000      0.0000      0.0000
  F        3.3728      1.1072     33.6397      0.0000      0.0000      0.0000
  H        0.8841      1.2880     34.9336      0.0000      0.0000      0.0000
  H        8.0679      1.2880     34.9336      0.0000      0.0000      0.0000
  H        3.5919      3.7861     34.9336      0.0000      0.0000      0.0000
  H        5.3602      3.7861     34.9336      0.0000      0.0000      0.0000
  C        0.0000      2.7653     36.2274      0.0000      0.0000      0.0000
  C        4.4760      0.2672     36.2274      0.0000      0.0000      0.0000
  C        0.0000      1.9369     37.5213      0.0000      0.0000      0.0000
  C        4.4760      4.4349     37.5213      0.0000      0.0000      0.0000
  F        1.1032      3.6052     36.2274      0.0000      0.0000      0.0000
  F        7.8488      3.6052     36.2274      0.0000      0.0000      0.0000
  F        5.5792      1.1072     36.2274      0.0000      0.0000      0.0000
  F        3.3728      1.1072     36.2274      0.0000      0.0000      0.0000
  H        0.8841      1.2880     37.5213      0.0000      0.0000      0.0000
  H        8.0679      1.2880     37.5213      0.0000      0.0000      0.0000
  H        3.5919      3.7861     37.5213      0.0000      0.0000      0.0000
  H        5.3602      3.7861     37.5213      0.0000      0.0000      0.0000
  C        0.0000      2.7653     38.8151      0.0000      0.0000      0.0000
  C        4.4760      0.2672     38.8151      0.0000      0.0000      0.0000
  C        0.0000      1.9369     40.1089      0.0000      0.0000      0.0000
  C        4.4760      4.4349     40.1089      0.0000      0.0000      0.0000
  F        1.1032      3.6052     38.8151      0.0000      0.0000      0.0000
  F        7.8488      3.6052     38.8151      0.0000      0.0000      0.0000
  F        5.5792      1.1072     38.8151      0.0000      0.0000      0.0000
  F        3.3728      1.1072     38.8151      0.0000      0.0000      0.0000
  H        0.8841      1.2880     40.1089      0.0000      0.0000      0.0000
  H        8.0679      1.2880     40.1089      0.0000      0.0000      0.0000
  H        3.5919      3.7861     40.1089      0.0000      0.0000      0.0000
  H        5.3602      3.7861     40.1089      0.0000      0.0000      0.0000
  C        0.0000      2.7653     41.4028      0.0000      0.0000      0.0000
  C        4.4760      0.2672     41.4028      0.0000      0.0000      0.0000
  C        0.0000      1.9369     42.6966      0.0000      0.0000      0.0000
  C        4.4760      4.4349     42.6966      0.0000      0.0000      0.0000
  F        1.1032      3.6052     41.4028      0.0000      0.0000      0.0000
  F        7.8488      3.6052     41.4028      0.0000      0.0000      0.0000
  F        5.5792      1.1072     41.4028      0.0000      0.0000      0.0000
  F        3.3728      1.1072     41.4028      0.0000      0.0000      0.0000
  H        0.8841      1.2880     42.6966      0.0000      0.0000      0.0000
  H        8.0679      1.2880     42.6966      0.0000      0.0000      0.0000
  H        3.5919      3.7861     42.6966      0.0000      0.0000      0.0000
  H        5.3602      3.7861     42.6966      0.0000      0.0000      0.0000
  C        0.0000      2.7653     43.9904      0.0000      0.0000      0.0000
  C        4.4760      0.2672     43.9904      0.0000      0.0000      0.0000
  C        0.0000      1.9369     45.2843      0.0000      0.0000      0.0000
  C        4.4760      4.4349     45.2843      0.0000      0.0000      0.0000
  F        1.1032      3.6052     43.9904      0.0000      0.0000      0.0000
  F        7.8488      3.6052     43.9904      0.0000      0.0000      0.0000
  F        5.5792      1.1072     43.9904      0.0000      0.0000      0.0000
  F        3.3728      1.1072     43.9904      0.0000      0.0000      0.0000
  H        0.8841      1.2880     45.2843      0.0000      0.0000      0.0000
  H        8.0679      1.2880     45.2843      0.0000      0.0000      0.0000
  H        3.5919      3.7861     45.2843      0.0000      0.0000      0.0000
  H        5.3602      3.7861     45.2843      0.0000      0.0000      0.0000
