120

C   6.327489   8.005637   4.836556
C   6.961364   9.048856   4.111233
C   7.436056   8.845832   2.810140
C   7.268676   7.593324   2.239486
C   6.173274   6.742899   4.216377
C   6.654500   6.574853   2.923330
C   7.661961   7.078236   0.903694
N   7.245494   5.793726   0.906528
C   5.390001   1.760857   21.390342
H   7.111303   10.027736   4.558524
H   7.927730   9.645016   2.260347
H   5.681272   5.909397   4.710038
O   6.188381   4.276047   2.260784
C   6.636263   5.382186   2.039436
O   8.231580   7.654613   0.000000
C   5.828366   8.230420   6.244774
C   5.420597   9.518486   6.679339
C   4.941950   9.726377   7.981065
C   4.879087   8.643819   8.840942
C   5.750114   7.151547   7.157046
C   5.272970   7.395593   8.439909
C   4.400280   8.534199   10.246869
N   4.545480   7.224880   10.583738
O   3.951116   9.422391   10.944185
H   5.448649   10.369047   6.002869
H   4.618987   10.715664   8.302373
H   6.058876   6.144425   6.890633
O   5.276730   5.272846   9.600526
C   5.067444   6.468458   9.578251
C   4.699865   2.965906   21.285223
O   5.021297   3.880766   20.294047
H   4.096090   1.935685   18.661221
C   3.758020   5.541229   17.266861
C   3.361394   4.455404   16.487093
C   3.467796   3.162412   17.005416
C   3.996140   2.949457   18.283093
C   4.409106   4.036504   19.057927
C   4.285312   5.328872   18.542259
C   7.347927   5.755296   44.012113
H   5.729634   0.000000   22.578354
H   6.124075   1.487323   20.636331
H   1.290252   6.069928   13.625257
C   2.346971   6.063078   13.370029
C   2.780156   6.705047   12.209576
H   4.133084   0.638384   24.348781
C   4.125747   6.663363   11.841402
O   2.758227   4.647863   15.254223
C   5.037092   5.995413   12.665945
H   6.085633   5.939891   12.383031
C   4.605220   5.359963   13.833852
H   5.318426   4.809630   14.441243
C   3.252919   5.384303   14.186719
H   3.140998   2.314706   16.408513
H   3.643695   6.554179   16.889429
C   3.833743   3.346643   22.308915
C   3.589105   2.517869   23.418548
H   3.379369   4.330657   22.245333
C   4.270402   1.296700   23.493797
H   4.598701   6.179779   19.141389
C   5.170725   0.928642   22.489476
H   2.055619   7.208621   11.573617
C   1.468711   5.748672   27.992174
C   0.642298   6.238640   26.948605
C   0.590244   5.617608   25.702887
C   1.398893   4.517566   25.493209
C   2.242839   4.580296   27.756772
C   2.215365   4.020443   26.471024
C   1.656867   3.790776   24.236180
N   2.732918   2.996443   24.489794
C   6.876811   6.823271   43.248644
H   0.054410   7.142838   27.081869
H   0.000000   6.035570   24.890982
H   2.920555   4.182214   28.508404
O   3.980596   2.366194   26.333663
C   3.062111   2.974278   25.820644
O   1.122849   3.997519   23.163623
H   0.124090   9.591369   35.097988
C   1.584307   6.592826   29.245617
C   1.595499   8.002032   29.083007
C   1.635875   8.866922   30.175186
C   1.678894   8.314073   31.441795
C   1.651458   6.060439   30.560686
C   1.692148   6.958674   31.637176
C   1.724075   8.987630   32.758390
N   1.763763   7.989802   33.680666
O   1.738983   10.184682   32.969155
H   1.577666   8.447261   28.091565
H   1.631908   9.945287   30.036610
H   1.642063   4.988851   30.745975
O   1.760477   5.683097   33.704953
C   1.745721   6.745233   33.114863
C   6.292492   7.925311   43.874891
O   5.850220   9.002269   43.134072
H   3.937813   7.138199   42.794136
C   3.939824   9.987182   40.162112
C   2.980752   8.976001   40.099068
C   2.988287   7.951964   41.045965
C   3.960274   7.927262   42.046758
C   4.923367   8.938669   42.109633
C   4.907548   9.966593   41.167011
H   6.598746   6.931593   47.112410
H   7.797436   4.895164   43.521785
H   6.967087   6.796141   42.165885
H   0.242054   10.072223   37.510096
C   0.969023   9.400305   37.059496
C   0.902127   9.122221   35.695256
C   1.822500   8.251178   35.099675
O   1.926916   9.075201   39.212024
C   2.822162   7.682336   35.897384
H   3.555722   7.013794   35.453781
C   2.890062   7.961651   37.265936
H   3.662189   7.494642   37.871479
C   1.957970   8.821334   37.851852
H   2.215877   7.187498   41.024504
H   3.910063   10.812764   39.456791
C   6.201066   7.966950   45.266621
C   6.673947   6.898596   46.028406
H   5.761924   8.831577   45.758427
C   7.245494   5.793726   45.401190
H   5.635850   10.770943   41.232534
