122

C   5.190791   8.005637   14.285010
C   4.301827   9.048856   13.914020
C   2.917349   8.845832   13.876670
C   2.429287   7.593324   14.216460
C   4.651586   6.742899   14.628030
C   3.272665   6.574853   14.581930
C   1.037732   7.078236   14.267320
N   1.172557   5.793726   14.661370
C   21.186706   1.760857   9.921820
H   4.678434   10.027736   13.629910
H   2.239964   9.645016   13.584840
H   5.275845   5.909397   14.937980
O   2.792244   4.276047   15.234180
C   2.440228   5.382186   14.879670
O   0.000000   7.654613   14.013860
H   0.380014   5.182181   14.782160
C   6.684611   8.230420   14.311540
C   7.226100   9.518486   14.560360
C   8.612434   9.726377   14.601260
C   9.447828   8.643819   14.388050
C   7.574575   7.151547   14.096300
C   8.942544   7.395593   14.141760
C   10.933029   8.534199   14.396040
N   11.206423   7.224880   14.151460
O   11.736828   9.422391   14.600750
H   6.575683   10.369047   14.748390
H   9.019611   10.715664   14.805590
H   7.223962   6.144425   13.888020
O   10.042000   5.272846   13.769950
C   10.087278   6.468458   13.975490
C   21.305987   2.965906   10.609650
O   20.264040   3.880766   10.619310
H   19.009133   1.935685   12.014780
C   17.794082   5.541229   12.777790
C   17.180447   4.455404   13.401330
C   17.638229   3.162412   13.135970
C   18.682255   2.949457   12.229540
C   19.286026   4.036504   11.592070
C   18.836280   5.328872   11.873080
C   42.018412   5.755296   0.887550
H   22.205575   0.000000   9.222800
H   20.238745   1.487323   9.464910
H   15.123618   6.069928   16.273470
C   14.546298   6.063078   15.352330
C   13.308363   6.705047   15.309720
H   24.391084   0.638384   10.175130
C   12.532278   6.663363   14.150470
O   16.202653   4.647863   14.364500
C   13.025064   5.995413   13.024600
H   12.424083   5.939891   12.120000
C   14.269651   5.359963   13.063600
H   14.619371   4.809630   12.194530
C   15.033349   5.384303   14.234070
H   17.175855   2.314706   13.635270
H   17.472425   6.554179   13.005960
C   22.551592   3.346643   11.106220
C   23.681510   2.517869   10.986150
H   22.635460   4.330657   11.557290
C   23.536708   1.296700   10.316180
H   19.305021   6.179779   11.385790
C   22.298621   0.928642   9.781030
H   12.935146   7.208621   16.198600
C   28.691587   5.748672   11.545850
C   27.964145   6.238640   12.660670
C   26.799308   5.617608   13.105280
C   26.343893   4.517566   12.404940
C   28.222729   4.580296   10.886410
C   27.012132   4.020443   11.320410
C   25.069963   3.790776   12.559130
N   24.969060   2.996443   11.458210
C   41.443867   6.823271   1.576560
H   28.277050   7.142838   13.175900
H   26.216628   6.035570   13.922630
H   28.720498   4.182214   10.005230
O   26.321791   2.366194   9.689970
C   26.126699   2.974278   10.723770
O   24.222259   3.997519   13.405860
H   35.856874   9.591369   10.566440
C   29.843588   6.592826   11.038530
C   29.685829   8.002032   11.079510
C   30.708766   8.866922   10.694690
C   31.896281   8.314073   10.252020
C   31.069403   6.060439   10.557600
C   32.077361   6.958674   10.177460
C   33.130513   8.987630   9.791440
N   33.992544   7.989802   9.461180
O   33.325658   10.184682   9.710430
H   28.751272   8.447261   11.410990
H   30.578608   9.945287   10.742420
H   31.248099   4.988851   10.507720
O   34.016618   5.683097   9.456590
C   33.461700   6.745233   9.657810
C   42.223152   7.925311   1.931990
O   41.660936   9.002269   2.586460
H   41.945339   7.138199   4.507910
C   39.448671   9.987182   5.341100
C   39.693182   8.976001   6.270620
C   40.588762   7.951964   5.963040
C   41.229450   7.927262   4.723740
C   40.983503   8.938669   3.790460
C   40.094605   9.966593   4.104540
H   45.196222   6.931593   0.614350
H   41.410797   4.895164   0.616840
H   40.388411   6.796141   1.834490
H   38.106923   10.072223   9.689250
C   37.448950   9.400305   9.142810
C   36.176424   9.122221   9.639100
H   43.816805   4.962891   0.000000
C   35.319598   8.251178   8.955250
O   39.186335   9.075201   7.551450
C   35.758913   7.682336   7.754140
H   35.105485   7.013794   7.199230
C   37.035210   7.961651   7.255530
H   37.364482   7.494642   6.331170
C   37.886590   8.821334   7.953560
H   40.813484   7.187498   6.702350
H   38.789236   10.812764   5.593110
C   43.571980   7.966950   1.577120
C   44.144367   6.898596   0.886970
H   44.177708   8.831577   1.837530
C   43.368216   5.793726   0.543960
H   39.925664   10.770943   3.393080
