122

C   4.548530   -1.045000   -0.317450
C   3.578930   -2.013730   -0.688440
C   2.215140   -1.700560   -0.725790
C   1.828880   -0.413010   -0.386000
C   4.112110   0.256840   0.025570
C   2.751060   0.534700   -0.020530
C   0.483010   0.211790   -0.335140
N   0.720200   1.481390   0.058910
C   20.992900   3.899620   -4.680640
H   3.875990   -3.019610   -0.972550
H   1.475970   -2.442970   -1.017620
H   4.801070   1.037710   0.335520
O   2.456150   2.864580   0.631720
C   2.016740   1.790160   0.277210
O   -0.597520   -0.279690   -0.588600
H   -0.020860   2.154400   0.179700
C   6.019570   -1.388610   -0.290920
C   6.456240   -2.715880   -0.042100
C   7.821490   -3.034050   -0.001200
C   8.740840   -2.021820   -0.214410
C   6.993020   -0.384420   -0.506160
C   8.337070   -0.737160   -0.460700
C   10.230050   -2.031410   -0.206420
N   10.607350   -0.748170   -0.451000
O   10.960190   -2.981080   -0.001710
H   5.739840   -3.511660   0.145930
H   8.148190   -4.052750   0.203130
H   6.724130   0.647530   -0.714440
O   9.602880   1.290790   -0.832510
C   9.552330   0.095390   -0.626970
C   21.015360   2.688890   -3.992810
O   19.903540   1.860350   -3.983150
H   18.808320   3.899620   -2.587680
C   17.308620   0.402880   -1.824670
C   16.783850   1.534330   -1.201130
C   17.343640   2.786540   -1.466490
C   18.401360   2.915260   -2.372920
C   18.916200   1.783380   -3.010390
C   18.364470   0.531150   -2.729380
C   41.438120   -1.749140   -13.714910
H   22.149420   5.573290   -5.379660
H   20.069870   4.248140   -5.137550
H   14.604410   0.089590   1.671010
C   14.029490   0.142620   0.749870
C   12.744150   -0.398220   0.707260
H   24.276830   4.762050   -4.427330
C   11.973890   -0.294560   -0.451990
O   15.793790   1.420740   -0.237960
C   12.518550   0.331810   -1.577860
H   11.923940   0.435250   -2.482460
C   13.810000   0.865620   -1.538860
H   14.202640   1.386200   -2.407930
C   14.569300   0.780240   -0.368390
H   16.950590   3.668530   -0.967190
H   16.906930   -0.581080   -1.596500
C   22.226500   2.209690   -3.496240
C   23.419120   2.945380   -3.616310
H   22.231350   1.222120   -3.045170
C   23.372510   4.174220   -4.286280
H   18.763610   -0.354540   -3.216670
C   22.167850   4.640180   -4.821430
H   12.331830   -0.870310   1.596140
C   28.154570   -0.676010   -3.056610
C   27.390250   -1.106190   -1.941790
C   26.278850   -0.393930   -1.497180
C   25.912930   0.739030   -2.197520
C   27.780720   0.526140   -3.716050
C   26.618810   1.181080   -3.282050
C   24.701250   1.565440   -2.043330
N   24.664240   2.365300   -3.144250
C   40.779950   -2.767710   -13.025900
H   27.629790   -2.032530   -1.426560
H   25.664590   -0.763920   -0.679830
H   28.308750   0.883110   -4.597230
O   26.063070   2.885270   -4.912490
C   25.819940   2.294750   -3.878690
O   23.839720   1.427200   -1.196600
H   34.989350   -5.079810   -4.036020
C   29.235320   -1.609650   -3.563930
C   28.965290   -3.001710   -3.522950
C   29.915730   -3.945690   -3.907770
C   31.143680   -3.489650   -4.350440
C   30.499810   -1.177070   -4.044860
C   31.432650   -2.153090   -4.425000
C   32.320050   -4.259820   -4.811020
N   33.259170   -3.334180   -5.141280
O   32.418770   -5.468650   -4.892030
H   27.998100   -3.370720   -3.191470
H   29.699690   -5.010180   -3.860040
H   30.763690   -0.123220   -4.094740
O   33.467770   -1.036800   -5.145870
C   32.829630   -2.051120   -4.944650
C   41.468540   -3.928580   -12.670470
O   40.821940   -4.957090   -12.016000
H   41.254610   -3.121760   -10.094550
C   38.537950   -5.761800   -9.261360
C   38.862600   -4.773430   -8.331840
C   39.837260   -3.824350   -8.639420
C   40.477870   -3.851000   -9.878720
C   40.151770   -4.839480   -10.812000
C   39.183460   -5.792970   -10.497920
H   44.511600   -3.175980   -13.988110
H   40.901290   -0.843140   -13.985620
H   39.730050   -2.656200   -12.767970
H   37.193700   -5.739190   -4.913210
C   36.591610   -5.016770   -5.459650
C   35.345420   -4.637740   -4.963360
H   43.294160   -1.103200   -14.602460
C   34.561050   -3.700920   -5.647210
O   38.349440   -4.831750   -7.051010
C   35.044480   -3.169060   -6.848320
H   34.446650   -2.450370   -7.403230
C   36.294330   -3.549620   -7.346930
H   36.659920   -3.110460   -8.271290
C   37.074180   -4.474680   -6.648900
H   40.122440   -3.080320   -7.900110
H   37.814560   -6.531960   -9.009350
C   42.809710   -4.078030   -13.025340
C   43.465760   -3.058910   -13.715490
H   43.344300   -4.988360   -12.764930
C   42.780520   -1.895470   -14.058500
H   38.950690   -6.581220   -11.209380
