120

C   6.741381   7.440439   4.875330
C   7.362167   8.501217   4.165528
C   7.815294   8.329103   2.853016
C   7.641772   7.088926   2.258571
C   6.583605   6.189718   4.233783
C   7.044329   6.052317   2.930433
C   8.007582   6.607601   0.903106
N   7.593751   5.322218   0.883687
C   5.255079   2.054033   20.942091
H   7.513502   9.470830   4.632043
H   8.292385   9.143438   2.312602
H   6.101149   5.344698   4.717728
O   6.567117   3.769850   2.222511
C   7.010963   4.881010   2.019412
O   8.550769   7.209437   0.000000
C   6.249246   7.640605   6.287410
C   5.823055   8.919817   6.729966
C   5.341956   9.113607   8.030331
C   5.290811   8.017563   8.879597
C   6.187097   6.550488   7.186344
C   5.702634   6.780054   8.470370
C   4.807412   7.899090   10.276643
N   4.958156   6.587815   10.601535
O   4.341946   8.777597   10.976204
H   5.837237   9.775583   6.060100
H   5.003546   10.091862   8.361596
H   6.506082   5.550501   6.911199
O   5.713260   4.646285   9.616372
C   5.497963   5.842186   9.600382
C   5.341737   3.262906   21.629784
H   6.033296   10.234144   40.984126
H   4.677064   0.636502   17.643581
C   4.332437   4.485403   17.352693
C   3.800512   3.662053   16.363323
C   3.926126   2.277549   16.469357
C   4.585874   1.716529   17.563828
C   5.109973   2.535473   18.565224
C   4.993322   3.924676   18.444301
C   7.684244   5.246604   43.882509
H   4.603563   0.000000   21.035164
O   5.743289   1.948851   19.651838
H   1.649649   5.545275   13.616426
C   2.706113   5.499163   13.363978
C   3.161764   6.094268   12.189923
H   3.489763   0.257249   23.237489
C   4.512601   6.024690   11.844210
O   3.071544   4.209383   15.327801
C   5.405024   5.366099   12.694760
H   6.458596   5.300134   12.433738
C   4.949244   4.771522   13.873110
H   5.654719   4.249025   14.513506
C   3.592721   4.831215   14.206813
H   3.498962   1.634572   15.704134
H   4.219552   5.564322   17.282233
C   4.717002   3.407980   22.861030
C   4.027000   2.340558   23.433452
H   4.716177   4.380792   23.347166
C   4.020028   1.098077   22.796432
H   5.410014   4.586911   19.193189
C   4.640025   0.956277   21.551098
H   2.454556   6.598683   11.535628
C   1.803962   5.314750   28.007844
C   0.803136   5.618595   27.054405
C   0.734792   4.931582   25.842135
C   1.695703   3.966344   25.590234
C   2.740627   4.290966   27.738924
C   2.671223   3.657042   26.500649
C   1.991337   3.250550   24.333924
N   3.183684   2.637584   24.549016
C   7.248080   6.310957   43.095604
H   0.091625   6.420758   27.236647
H   0.000000   5.197806   25.085931
H   3.555053   4.064666   28.423133
O   4.709135   2.368230   26.250253
C   3.632286   2.741499   25.829443
O   1.437820   3.401357   23.262098
H   0.521484   8.976863   35.003071
C   1.939860   6.188520   29.217276
C   1.928904   7.593383   29.042314
C   2.046197   8.455354   30.133543
C   2.157096   7.892767   31.394801
C   2.075516   5.646640   30.514775
C   2.168223   6.536132   31.582973
C   2.253173   8.543953   32.718661
N   2.292738   7.527840   33.620441
O   2.265307   9.736262   32.954351
H   1.839961   8.025452   28.048084
H   2.038867   9.534652   30.001263
H   2.078819   4.573699   30.692099
O   2.262617   5.221497   33.618541
C   2.262165   6.293200   33.045789
C   6.718108   7.451711   43.699458
O   6.300715   8.519851   42.932417
H   4.344019   6.681305   42.735650
C   4.282238   9.441988   40.012647
C   3.308977   8.443137   40.026853
C   3.338805   7.450531   41.003847
C   4.346255   7.448477   41.965857
C   5.323308   8.448653   41.956392
C   5.286932   9.443984   40.980472
H   7.003757   6.526360   46.958586
H   8.099707   4.358749   43.412209
H   7.326895   6.253791   42.012728
H   0.535114   9.406135   37.430356
C   1.315360   8.792157   36.987296
C   1.308526   8.546096   35.617605
C   2.302991   7.754614   35.037877
O   2.247029   8.489598   39.150187
C   3.303709   7.208724   35.846761
H   4.080463   6.586191   35.409225
C   3.311717   7.456250   37.220604
H   4.087704   7.014039   37.839724
C   2.316702   8.254476   37.791540
H   2.562690   6.690325   41.028005
H   4.242856   10.234611   39.270047
C   6.637724   7.532681   45.088887
C   7.070890   6.465699   45.874666
H   6.232572   8.425183   45.560450
C   7.593751   5.322218   45.271899
H   5.857962   4.112752   21.198366
