122
XYZ file generated by Avogadro.
C      4.65766   -1.00561   -0.37503
C      3.70688   -1.99463   -0.73876
C      2.33627   -1.71378   -0.75240
C      1.92668   -0.43741   -0.39937
C      4.19939    0.28518   -0.02200
C      2.83231    0.53093   -0.04575
C      0.56739    0.15272   -0.31658
N      0.78098    1.42524    0.08206
C     20.74199    3.12780   -4.05912
H      4.02382   -2.99228   -1.03019
H      1.61045   -2.47335   -1.03355
H      4.87593    1.07942    0.28214
O      2.49344    2.84725    0.63128
C      2.07369    1.76577    0.27472
O     -0.50551   -0.36629   -0.54543
H      0.02594    2.07704    0.22726
C      6.13253   -1.32283   -0.35596
C      6.58498   -2.64174   -0.09206
C      7.95124   -2.94399   -0.04804
C      8.85662   -1.91601   -0.26878
C      7.08788   -0.30474   -0.58201
C      8.43694   -0.64152   -0.52962
C     10.33959   -1.91424   -0.25323
N     10.70232   -0.62752   -0.49920
O     11.07898   -2.85385   -0.03356
H      5.87981   -3.44450    0.10686
H      8.29441   -3.95238    0.16789
H      6.80562    0.72064   -0.79731
O      9.68502    1.40036   -0.90302
C      9.64383    0.20399   -0.69376
C     21.26966    1.87351   -4.35933
H     38.80146   -6.50344  -11.15121
H     17.91758    4.77271   -2.46518
C     17.44857    0.94886   -2.04611
C     16.74606    1.83023   -1.22796
C     16.91557    3.20566   -1.38071
C     17.78600    3.69971   -2.35341
C     18.50270    2.82164   -3.16795
C     18.31591    1.44286   -3.01898
C     41.41253   -1.70651  -13.63588
H     21.19755    5.15226   -3.47072
O     19.37607    3.34114   -4.11309
H     14.68052    0.10421    1.68281
C     14.11157    0.19538    0.76088
C     12.81069   -0.29888    0.70095
H     23.61156    4.70364   -3.11259
C     12.06237   -0.17001   -0.47060
O     15.95432    1.34370   -0.20830
C     12.63632    0.44532   -1.58664
H     12.06174    0.55685   -2.50311
C     13.94126    0.93873   -1.52795
H     14.36489    1.42941   -2.40006
C     14.68080    0.82047   -0.34720
H     16.37768    3.89310   -0.73298
H     17.33272   -0.12427   -1.91671
C     22.61980    1.62140   -4.15717
C     23.46309    2.62557   -3.68424
H     23.00313    0.61530   -4.31051
C     22.96079    3.91157   -3.47567
H     18.84015    0.73718   -3.65160
C     21.59857    4.16135   -3.66887
H     12.37589   -0.77054    1.57911
C     28.25658   -0.73629   -3.02612
C     27.64753   -0.99300   -1.77465
C     26.57703   -0.21934   -1.32550
C     26.11113    0.78568   -2.15698
C     27.78686    0.32776   -3.82921
C     26.68793    1.05041   -3.37081
C     24.88622    1.60040   -2.03907
N     24.76098    2.22516   -3.23810
C     40.72262   -2.71971  -12.97274
H     27.98158   -1.82403   -1.15762
H     26.07334   -0.44663   -0.38887
H     28.19417    0.52261   -4.81854
O     25.90853    2.40476   -5.22421
C     25.82163    2.03719   -4.06950
O     24.03591    1.51625   -1.17430
H     34.98750   -4.94116   -4.02753
C     29.28835   -1.69423   -3.53844
C     29.01583   -3.08195   -3.47258
C     29.94265   -4.01977   -3.92978
C     31.14436   -3.55030   -4.43482
C     30.51487   -1.24749   -4.07845
C     31.42552   -2.21164   -4.50503
C     32.31442   -4.29588   -4.94565
N     33.23449   -3.34924   -5.26907
O     32.43959   -5.50178   -5.03188
H     28.06992   -3.44069   -3.07302
H     29.73496   -5.08603   -3.88089
H     30.76592   -0.19103   -4.13780
O     33.42372   -1.05066   -5.23990
C     32.79800   -2.07630   -5.05789
C     41.37127   -3.91522  -12.66155
O     40.69391   -4.93321  -12.02251
H     41.27098   -3.13450  -10.10437
C     38.49872   -5.68492   -9.18249
C     38.89836   -4.71451   -8.26394
C     39.89077   -3.79716   -8.60197
C     40.48208   -3.84178   -9.86244
C     40.08562   -4.81377  -10.78609
C     39.09608   -5.73408  -10.44219
H     44.43523   -3.22887  -13.96572
H     40.90644   -0.77594  -13.88081
H     39.67838   -2.57993  -12.70418
H     37.24434   -5.54993   -4.80999
C     36.62716   -4.88532   -5.40952
C     35.35368   -4.53796   -4.96880
H     43.28615   -1.09747  -14.50943
C     34.55355   -3.68085   -5.72817
O     38.40147   -4.72189   -6.97884
C     35.04501   -3.17206   -6.93371
H     34.43483   -2.49942   -7.53168
C     36.32193   -3.52116   -7.37686
H     36.69684   -3.10717   -8.30910
C     37.11339   -4.38435   -6.61418
H     40.21873   -3.06048   -7.87355
H     37.74668   -6.42064   -8.90971
C     42.70397   -4.10165  -13.02581
C     43.39397   -3.08582  -13.68575
H     43.20763   -5.03669  -12.79106
C     42.74881   -1.88785  -13.99054
H     20.63173    1.07138   -4.71215
