104

C   5.410204   3.724437   4.223934
C   5.618475   5.145476   4.410060
C   5.927308   6.028133   3.364363
C   6.032931   5.342370   2.189738
C   5.415096   3.077705   2.979052
C   5.784787   3.957955   2.007775
C   6.368382   5.906592   0.889539
N   6.290378   4.841313   0.060260
C   3.574292   2.020579   17.461951
C   3.385985   6.184806   30.867995
H   5.696026   7.119179   3.224844
H   4.494547   5.856154   29.045648
O   5.817404   2.599017   0.000000
C   5.949936   3.648487   0.595261
O   6.647868   7.044825   0.575628
H   5.043024   8.816014   35.063830
C   6.290378   4.841313   40.288398
C   5.704924   6.069712   40.589483
C   5.261169   6.900999   39.561713
H   3.690144   8.431927   33.024317
C   2.112375   6.190828   31.447575
C   5.345143   5.459031   5.854375
N   4.976539   4.259176   6.343547
O   5.338474   6.467269   6.570706
H   2.033211   4.887739   34.797650
H   4.816621   7.864404   39.799573
H   4.278792   6.416021   31.438444
O   4.529197   2.087070   5.945718
C   4.957116   3.173942   5.539655
C   3.361611   3.245429   17.939913
O   4.518781   2.610263   16.569825
H   2.377957   1.658380   15.421965
C   4.195655   4.174656   13.134754
C   3.331230   3.209655   12.610579
C   2.663676   2.349683   13.458386
C   2.950323   2.343830   14.807070
C   4.001586   3.101653   15.328985
C   4.506099   4.148272   14.511121
C   6.431452   4.445113   38.959175
H   3.270458   0.000000   18.318629
H   5.602715   6.383826   41.625561
H   1.628071   4.057574   9.378059
C   2.693810   4.004130   9.179184
C   3.172156   4.295402   7.918050
H   2.682357   0.733436   20.541215
C   4.527777   4.138177   7.667997
O   2.961149   3.102520   11.297423
C   5.420578   3.728520   8.650847
H   6.471493   3.583466   8.403782
C   4.937131   3.434661   9.919457
H   5.617273   3.046420   10.671722
C   3.567562   3.571411   10.168577
H   1.945049   1.640111   13.054730
H   4.648824   4.912960   12.470953
C   3.685167   3.633102   19.198508
C   3.289335   2.748640   20.152853
H   3.695384   4.681592   19.428997
C   3.129156   1.417067   19.803085
H   5.152945   4.928574   14.905054
C   3.569106   1.030565   18.508542
H   2.486730   4.581239   7.122623
C   3.089302   4.014689   25.685610
C   2.299157   5.140481   25.225351
C   1.684080   5.231953   23.970564
C   2.399410   4.409525   23.156927
C   3.542040   2.994871   24.853546
C   3.297961   3.397735   23.584617
C   2.234081   4.267860   21.727871
N   3.084504   3.244200   21.441427
C   5.987748   5.275433   37.930174
H   6.898668   3.492140   38.724360
H   0.583723   5.214692   23.770827
H   3.665032   1.873346   24.971118
O   4.629966   1.821063   22.367507
C   3.814350   2.719254   22.439931
O   1.456659   4.822760   20.972423
H   0.244717   5.257006   28.767527
H   4.784171   2.229692   2.596978
C   3.514808   5.876926   29.522534
C   2.378534   5.565020   28.786185
C   1.116364   5.534387   29.358625
C   0.985565   5.872341   30.692412
C   1.954912   5.911338   26.441434
N   2.526753   5.196221   27.442293
O   1.268617   6.907855   26.656563
H   0.000000   5.877229   31.145629
O   1.884471   6.484122   32.769325
H   6.120609   4.969644   36.895856
O   3.647336   3.311331   28.033565
C   3.201109   4.065709   27.162985
C   5.392871   6.502756   38.231008
O   5.004351   7.377097   37.233298
H   3.363917   5.270024   36.839570
C   3.656331   7.715595   33.841810
C   2.809587   6.610419   33.775641
C   2.726526   5.723897   34.844758
C   3.479488   5.942979   35.994976
C   4.324101   7.054051   36.072648
C   4.412863   7.933393   34.992222
H   5.240914   2.661967   4.182035
H   5.758432   6.186819   4.640753
H   2.454070   3.603608   17.569748
H   3.675431   3.179983   26.028168
H   1.704120   5.990359   24.890594
