100

C   5.202978   4.072675   4.443455
C   5.452499   5.419817   4.624954
C   5.836299   6.240049   3.500558
C   5.965783   5.660985   2.186724
C   5.321924   3.477729   3.135055
C   5.707584   4.278774   2.003781
C   6.335193   6.223561   0.891640
N   6.266355   5.151306   0.064943
C   3.538675   1.832986   17.737027
C   3.368022   6.463941   30.747833
H   5.792616   7.323111   3.411361
H   4.485969   6.136773   28.944128
O   5.801317   2.906006   0.000000
C   5.910387   3.958101   0.596343
O   6.635413   7.356015   0.576738
H   5.011240   9.126896   35.049405
C   6.266355   5.151306   40.271911
C   5.679446   6.378570   40.574085
C   5.232244   7.209787   39.546993
H   3.674841   8.746838   32.999364
C   2.106809   6.481094   31.348209
C   5.227190   5.703812   6.030436
N   4.953122   4.591527   6.179128
O   5.351692   6.816636   6.508622
H   2.008093   5.199687   34.759378
H   4.787057   8.172187   39.787436
H   4.257230   6.693439   31.328760
O   4.534529   2.356227   5.876985
C   4.826661   3.530545   5.731685
C   3.646903   3.222022   17.842944
O   3.982327   4.023608   16.746023
H   2.303445   2.219429   15.521030
C   4.222190   4.538645   13.084920
C   3.387497   3.534074   12.590387
C   2.726590   2.700748   13.490424
C   2.888960   2.854128   14.866239
C   3.766949   3.818705   15.376569
C   4.413112   4.668221   14.468017
C   6.405934   4.756731   38.942268
H   3.001184   0.000000   18.720934
H   3.773523   1.323141   16.808015
H   1.673229   4.368616   9.320990
C   2.736033   4.311587   9.101467
C   3.185547   4.603853   7.815886
H   2.558854   1.059905   20.888295
C   4.540796   4.447992   7.492039
O   3.060486   3.373778   11.251455
C   5.439908   4.053495   8.496147
H   6.492588   3.913171   8.259589
C   4.980595   3.762055   9.787855
H   5.675355   3.383868   10.533238
C   3.621127   3.882371   10.089944
H   2.051181   1.936579   13.113394
H   4.708224   5.233296   12.404915
C   3.495235   3.816370   19.108556
C   3.128902   3.053302   20.240444
H   3.662318   4.886589   19.206763
C   2.873243   1.682504   20.052883
H   5.057696   5.458468   14.844490
C   3.118751   1.075770   18.825205
H   2.469758   4.898072   7.053011
C   3.028151   4.360183   25.800163
C   2.219964   5.399993   25.396778
C   1.837526   5.517218   24.003891
C   2.402589   4.617670   23.019673
C   3.614692   3.484445   24.814783
C   3.328440   3.679088   23.412966
C   2.257913   4.450241   21.580793
N   3.050915   3.606881   21.519431
C   5.959175   5.587278   37.914317
H   6.874181   3.804932   38.705879
H   0.788938   5.742860   23.825531
H   3.755710   2.468435   25.175737
O   4.680128   2.194479   22.245945
C   3.802093   3.039139   22.203237
O   1.465178   5.101554   20.925728
H   0.214283   5.552260   28.681683
H   4.932762   2.507633   2.835659
C   3.493729   6.145832   29.389847
C   2.369144   5.791498   28.617304
C   1.111056   5.807291   29.241550
C   0.985525   6.170398   30.581577
C   1.913389   6.152043   26.601760
N   2.489460   5.410273   27.283850
O   1.240912   7.167197   26.579307
H   0.000000   6.197062   31.040326
O   1.887131   6.777559   32.685673
H   6.091401   5.281603   36.880186
O   3.728278   3.602681   27.892893
C   3.119869   4.437321   27.245912
C   5.361005   6.813091   38.215525
O   4.966717   7.685704   37.216142
H   3.328125   5.581763   36.807892
C   3.636257   8.024564   33.809654
C   2.795477   6.913135   33.721697
C   2.701006   6.035792   34.803313
C   3.446080   6.254665   35.962549
C   4.291782   7.363303   36.049244
C   4.382327   8.243555   34.969758
H   5.578960   6.691924   41.610773
