330

H   4.55716509271  0.562012274604   27.1157954633
C   3.92797238594   1.36030878544   27.4996721738
C   3.83054929338   2.46581030876   26.4781266514
F   2.57984791980   2.49950401867   25.8384298867
F   4.82679470527   2.38309873940   25.5231421781
H   2.92716581126  0.988660479478   27.7311908466
H   4.36928817368   1.75225780246   28.4230492250
C   3.95253594939   3.79670479970   27.1099423116
C   4.04746622585   4.98993691355   26.1962660908
F   3.14379798376   4.98463874236   25.1383060791
F   5.27826708238   5.01089914809   25.5855544755
H   3.10384851331   3.92827409109   27.7917310841
H   4.86429130457   3.82154405955   27.7165391168
C   3.82601193514   6.16906910990   27.1141242753
C   4.48409972875   7.43259968008   26.8388148716
F   1.02070237816   7.01692842344   24.8273651669
F   5.77124582756   7.33151969283   26.5001236814
H   2.74843665223   6.32641830007   27.2279418736
H   4.19114911944   5.84705293274   28.1117946237
C   4.05179732445   8.64835282639   27.4533269841
C   4.30871126104   9.85897331857   26.6022523102
F   1.56348159281   9.97237508684   26.8765748781
F   5.58338341497   9.85204975072   25.9997853295
H   2.95216218832   8.67879092941   27.6074944059
H   4.58464658537   8.75520385809   28.4216540444
C   4.02865739325   11.1029589239   27.3039083815
C   4.01046701089   12.2569821089   26.3554983550
F   3.13252392673   12.0406382088   25.3041165798
F   5.21990978613   12.4892550339   25.7373659699
H   2.97105443186   10.9578240528   27.6273248266
H   4.71770181317   11.3191530764   28.1347088667
C   3.65408597473   13.4241072348   27.2575483676
C   3.64954760912   14.7191894822   26.5691587673
F   2.95061237117   14.5205598474   25.4014623648
F   4.96570924331   15.0983457350   26.3455926956
H   2.66788261858   13.2257961806   27.6931451206
H   4.40449908593   13.4412920533   28.0564296036
H   3.16499064560   15.5396088336   27.0930748827
Pb   4.16192162012   16.3648674502   13.8566020956
Pb   8.31973716723   4.09011211376   13.8542289750
N   4.79892022235   4.67153612069   16.2987340850
N   3.51759715197   3.50422025136   11.3844868810
N   7.66639436898   3.49719694350   2.42137962453
N  0.447250709618   4.64508717357   25.2633202922
N   3.39224281735  0.449147763048   24.7061061405
N   4.81369630499   7.58755351272   2.42100021395
N  0.640338500018   7.59727590070   11.3849609285
N   7.68213842061  0.578996307389   16.2989146758
H   4.67497554310   5.67967811098   16.5361898834
H   3.64130652759   2.49466288935   11.1468371112
H   7.73261764363   2.49070351385   2.71095014732
H  0.719699059821   6.03539185671   24.9284305119
H   3.25198578226   1.37179589179   24.3108845267
H   4.74420445820   6.58085044257   2.70993382581
H  0.517440086697   6.58760452689   11.1478099205
H   7.80438610867   1.58726372022   16.5347572226
H   4.69317788511   4.58476787936   15.2769765447
H   3.62361712846   3.59539567989   12.4063666536
H   7.81873490528   3.52886657767   1.39445757506
H  0.142107093076   4.67163155070   26.2344239712
H  0.148283082499   15.6883253428   24.7946898980
H   4.66491974645   7.61980320101   1.39425177967
H  0.535093712551   7.68839197628   12.4067571670
H   7.78868881022  0.490419513773   15.2774246135
H   5.78746911684   4.40369715236   16.5285430561
H   2.52878582283   3.77397656821   11.1494229900
H   6.67534922664   3.80942404331   2.58250605524
H   1.38167350491   4.24196661689   25.2654714515
H   2.54622115084   16.2938701543   24.4983241098
H   5.80471744496   7.89657924102   2.58658219346
H   1.62877314879   7.86805703305   11.1487553020
H   6.69374175041  0.310094990550   16.5282851493
H   3.95297304816   2.78518673762   16.6353056155
H   4.36505250060   5.39002072184   11.0499199353
H  0.144378455537   5.40392668178   2.78873792256
H   7.97792978412   2.72325521018   24.8177172609
H   4.26609461070   6.87537941413   24.3053103001
H   4.01416900477   1.31163035199   2.78764914528
H   8.11132278320   1.29637013150   11.0501982285
H  0.209463783728   6.88206507754   16.6369608486
H   2.80280367124   4.14110540267   16.7028060808
H   5.51465939897   4.03355064085   10.9768886642
H   1.32447502765   4.07620387828   2.85864900944
H   6.85164577118   4.07133646789   24.6809923856
H   5.29915397185   8.29992332095   24.3286934910
H   2.83374547936   16.3519564722   2.85610222755
H   6.96425079496   16.3057770646   10.9769151228
H   1.35848143355   8.23915574461   16.6975970366
H   5.04856512651   3.58443775414   18.7369901948
H   3.26081952713   4.59203182350   8.95690979846
H   7.41799715363   4.56999922085   4.92658095885
H  0.873199871411   3.57604206102   22.7816138746
H   3.35046086391   7.63650551649   22.0978458648
H   5.05929228128  0.480153143221   4.92679025285
H  0.894730376948  0.499867097177   8.95688941581
H   7.43790516191   7.68525441113   18.7338118632
H   3.91158881698   4.92921370134   18.8368733185
H   4.40016278231   3.24658236495   8.84940509733
H  0.251804136947   3.24218787056   4.98327317697
H   8.04934918951   4.91461644957   22.6787433333
H   4.54369225000  0.907399248982   22.1322335392
H   3.90332152658   7.33276272014   4.98006177108
H   8.07966616193   7.33838230383   8.85058316078
H  0.250791538356  0.842061464416   18.8405111929
H   3.18680235593   1.95374508335   18.9750038745
H   5.11942922996   6.22348140143   8.74017690939
H  0.941184114449   6.23182423095   5.10872829433
H   7.33965819392   1.93001447787   22.5099466010
H   5.20370213439   5.96385460999   22.2162304030
H   3.20469150419   2.13639232475   5.10537291111
H   7.35380558811   2.12940949268   8.74350466031
H  0.972174318207   6.05115851111   18.9567308073
H   2.01366658545   3.26606742244   19.0161515539
H   6.29567564193   4.91728594600   8.67741194137
H   2.13440677663   4.93694423199   5.14342132076
H   6.16730592285   3.23490315406   22.4629007317
H   6.38942514778   7.27078034827   22.1741026857
H   2.01908823473  0.834810476658   5.14473127250
H   6.18158364964  0.818972681583   8.67475019848
H   2.14661945687   7.36130535843   19.0215347422
H   2.69881987071   2.36594959852   21.3461373247
H   5.63788689864   5.81944372370   6.35714106064
H   1.46821480902   5.82419465361   7.48603023030
H   6.85831934077   2.35207890524   20.1351165741
H   5.85486913380   6.29850623329   19.8089979832
H   2.68062251383   1.72738411670   7.48312800205
H   6.84169791604   1.73096519977   6.35950656687
H   1.45422907068   6.44417581820   21.3402475823
H   2.93599367363   4.11311883802   21.1587858869
H   5.37009548694   4.07646900004   6.53907920925
H   1.22097966523   4.08343388660   7.30530970525
H   7.11194024565   4.09412658442   20.3288011573
H   5.52968963026   8.03893977153   19.9645672470
H   2.93858557112   16.3588663053   7.30699590508
H   7.11466514576   16.3554545988   6.53606556946
H   1.20340123360   8.18314311506   21.1744968722
H   4.31315800982   3.01382897892   21.0481777198
H   4.00591222737   5.19711944988   6.62698025435
H   8.17143094713   5.18196426584   7.20091372633
H  0.157859891801   2.98769947502   20.4482936370
H   4.19431667210   6.89951949718   20.0544441678
H   4.30656004490   1.09525167330   7.19686518684
H  0.154128175562   1.10941184967   6.63090873026
H   8.15688162372   7.07832162102   21.0412281968
C   3.80693450534   3.80734351081   17.0045976117
C   4.50824392114   4.36664908648   10.6832679177
C  0.316735132013   4.38460912666   3.16115462150
C   7.87973840052   3.76976497130   24.4838166944
C   4.34703953402   7.90597420853   23.9453229145
C   3.84105609971  0.292282182180   3.15981278671
C   7.96995138647  0.272667840534   10.6835752843
C  0.356024247469   7.90495677793   17.0035062490
C   4.01477004806   3.88579856984   18.5042821453
C   4.29581566251   4.29024389715   9.18461858430
C  0.125489520897   4.28707725746   4.66319845812
C   8.15416527591   3.86666209762   22.9957029846
C   4.35347286843   7.92121095934   22.4504913348
C   4.03060655119  0.194618474166   4.66214262056
C   8.18210682911  0.197044544808   9.18471650717
C  0.149049331888   7.98602341423   18.5023813900
C   3.04656457962   2.99953524338   19.2837824851
C   5.26155224204   5.18334078283   8.41215515305
C   1.09922283645   5.18873819324   5.42371356429
C   7.20476003127   2.97732835959   22.2006208876
C   5.37637989081   6.98826529726   21.8510106529
C   3.05336810314   1.09286449095   5.42218436357
C   7.21528180067   1.08951423130   8.41301304093
C   1.11162214049   7.09334288252   19.2805586254
C   3.25360080981   3.12975125109   20.7886730718
C   5.06010696553   5.06467459952   6.90433739745
C  0.906315168821   5.06440539714   6.93167175057
C   7.41824017234   3.10697637476   20.6991267564
C   5.24709526421   7.04616485215   20.3372661875
C   3.25023062753  0.972715872284   6.92995205617
C   7.42051437690  0.975743701264   6.90552487412
C  0.894376689292   7.20498768754   20.7849826325
Br   2.58822529779   5.61233545136   13.8927762751
Br   5.73050843686   2.57222127832   13.7418546389
Br   6.75181119348   6.66236729232   13.7411776429
Br   1.57086889260   1.52242605504   13.8928229251
Br   3.85583325852  0.171009256788   10.7409174375
Br   4.42626521040   8.02375681490   16.8001056662
Br   8.05093514527   3.93490489240   16.8145581173
Br  0.298833522613   4.26078601050   10.7467318284
Pb   4.16210557185   8.18262286055   13.8546935583
Pb   8.31976686601   12.2733207192   13.8566446307
N   4.79982701657   12.8554481524   16.3002432709
N   3.51794136236   11.6877271812   11.3842497173
N   7.66763790576   11.6820025769   2.41932812917
N  0.375070144647   12.8834631945   25.2696273160
N   3.23592278203   8.63914650294   24.4845417271
N   4.81414360480   15.7724685573   2.42101251348
N  0.640355487256   15.7800833742   11.3841713144
N   7.68289941009   8.76522727799   16.2974758400
H   4.67654697545   13.8626545411   16.5396804018
H   3.64156668694   10.6779859991   11.1469547637
H   7.73501311816   10.6758072338   2.70997991401
H  0.173965768663   14.9256291383   24.9098394155
H   3.08671974463   9.55434450683   24.0639620227
H   4.74655603333   14.7656939629   2.71077531955
H  0.517795803243   14.7701256702   11.1472379322
H   7.80472641478   9.77362330646   16.5341753996
H   4.69276757830   12.7701294356   15.2786120771
H   3.62410307096   11.7789972180   12.4060182994
H   7.81922889711   11.7148551781   1.39314682834
H  0.302977919421   12.6101199558   26.2519259870
H   3.56102277131   9.73242780307   25.8194811390
H   4.66405807127   15.8054727720   1.39390182961
H  0.534826242007   15.8710761035   12.4058220729
H   7.78708769808   8.67771766315   15.2757101111
H   5.78836410664   12.5869430403   16.5291341597
H   2.52899748731   11.9576576138   11.1491491072
H   6.67679547392   11.9946254678   2.58180561986
H   1.36282679785   12.7644217954   25.0634003536
H   2.36212664293   8.13712230214   24.6477819662
H   5.80511442769   16.0826255624   2.58478509895
H   1.62888511677   16.0511286966   11.1481595535
H   6.69557702585   8.49516645798   16.5291368425
H   3.95390139816   10.9696202610   16.6377599535
H   4.36583508498   13.5732293004   11.0497345380
H  0.144680033361   13.5892048736   2.78679286587
H   8.19161269743   10.8604795364   24.8078412297
H   4.63698602953   15.1778121071   24.2938133918
H   4.01502833324   9.49566218899   2.78710078123
H   8.11054895481   9.48123085751   11.0509619281
H  0.207945090309   15.0631728050   16.6409869069
H   2.80418475050   12.3256364716   16.7056147416
H   5.51504839087   12.2162609659   10.9755041367
H   1.32534918431   12.2617372662   2.85619913818
H   6.88744313276   12.0384914663   24.6939305924
H   5.44950239156  0.350932387087   24.3416730885
H   2.83336795724   8.16884485963   2.85486154035
H   6.96386198636   8.12222195669   10.9768256757
H   1.35671455864 0.0519374457993   16.7037997390
H   5.04969846297   11.7673795637   18.7418413304
H   3.26055604350   12.7750410413   8.95687159951
H   7.41943928139   12.7576745617   4.92491930905
H  0.889869307309   11.7866981459   22.7339729517
H   3.34453267765   15.9882846078   22.2743432044
H   5.06085003776   8.65993008395   4.92510936060
H  0.895460996286   8.68509668878   8.95798455429
H   7.43379370004   15.8645065170   18.7388708573
H   3.91515224544   13.1140908413   18.8391901194
H   4.40088470682   11.4307273597   8.84820786720
H  0.251283504159   11.4269601060   4.98101526653
H   8.03271408104   13.1033297574   22.7134860477
H   4.53001190178   8.94903445768   22.0960594437
H   3.90620296321   15.5171658531   4.98120805453
H   8.07877434103   15.5213712827   8.84929856589
H  0.253158851513   9.02885408712   18.8378269181
H   3.18322072143   10.1404923349   18.9734554607
H   5.11408532458   14.4095918010   8.73973164400
H  0.946398457304   14.4156687626   5.10684993942
H   7.35174875225   10.1201176722   22.5098413798
H   5.11597067286   14.2715171744   22.2981634998
H   3.21551382295   10.3226036935   5.10774610446
H   7.35618666100   10.3148414344   8.74134662704
H  0.968797568796   14.2319591296   18.9619644784
H   2.01334368697   11.4558098804   19.0195822052
H   6.29434961961   13.1044055372   8.67854245763
H   2.13630190228   13.1174940658   5.14419024269
H   6.18345944889   11.4293125706   22.4727379535
H   6.36546248569   15.5011241482   22.1841204721
H   2.02264802743   9.02615162187   5.14518897440
H   6.18287379802   9.00533876203   8.67506192538
H   2.14396471091   15.5418512077   19.0230653678
H   2.68093776626   10.5500937877   21.3390898352
H   5.63926941258   14.0060834244   6.35860709909
H   1.47147470585   14.0076551064   7.48427429085
H   6.85093855988   10.5425650319   20.1315977398
H   5.75840521064   14.4936562788   19.8956196906
H   2.69131180343   9.91401830751   7.48561581301
H   6.84264082853   9.91329243264   6.35772601693
H   1.45394134215   14.6192872487   21.3392596775
H   2.93839578375   12.2890158138   21.1700051373
H   5.37122143774   12.2628700165   6.53882367690
H   1.22065007094   12.2680706555   7.30556567329
H   7.11610761400   12.2839591605   20.3257444244
H   5.49478119651   16.2472794141   19.9662275877
H   2.93922989185   8.17390534964   7.30580432620
H   7.11113234074   8.17043945557   6.53734974579
H   1.20263063131   16.3629064800   21.1743542850
H   4.30985630200   11.1788645156   21.0556031383
H   4.00641364522   13.3814504332   6.62609634910
H   8.17169523644   13.3680412207   7.19787692863
H  0.155014088047   11.1667495395   20.4358602059
H   4.12427775467   15.1529448066   20.1104669909
H   4.30979202991   9.27534021477   7.19723947851
H  0.153366909456   9.28961955465   6.62975262906
H   8.15802290729   15.2501568304   21.0459893751
C   3.80836206706   11.9915925070   17.0073608667
C   4.50849294290   12.5499822775   10.6829128837
C  0.317746126755   12.5699565005   3.15914643110
C   7.94846316827   11.8891581341   24.4928294790
C   4.52372046635   16.2216906815   24.0219835236
C   3.84078861026   8.47646674397   3.15891973763
C   7.96968638837   8.45779817443   10.6839669466
C  0.353070012172   16.0862197886   17.0075349442
C   4.01685305481   12.0706889424   18.5069814378
C   4.29570018143   12.4741232135   9.18397077755
C  0.126526261558   12.4724898985   4.66146254879
C   8.17271948321   12.0481993940   22.9989053529
C   4.38324833390   16.2601321062   22.5258275978
C   4.03098685737   8.37801702028   4.66121541117
C   8.18271078895   8.38235768780   9.18527608804
C  0.144875966205   16.1667068092   18.5068808675
C   3.04608064504   11.1858111408   19.2859598005
C   5.26024894989   13.3691177112   8.41228012316
C   1.10192097760   13.3722383454   5.42239682473
C   7.21774802123   11.1679373068   22.2006417213
C   5.32698059162   15.2728899664   21.8938750783
C   3.05815601100   9.27935372114   5.42272705653
C   7.21645994850   9.27448605191   8.41224821881
C   1.10914940239   15.2744134378   19.2835873939
C   3.25259130221   11.3080053029   20.7913670949
C   5.06074010243   13.2508703417   6.90464027457
C  0.906550385980   13.2495980109   6.93025115465
C   7.41848726433   11.2948511761   20.6960909021
C   5.17879366128   15.2840553181   20.3875290332
C   3.25388595003   9.15520711519   6.93034577496
C   7.42053199685   9.15830006768   6.90488616617
C  0.893982791511   15.3827619303   20.7886395722
Br   2.58975249032   13.7968703044   13.8913473998
Br   5.73091877601   10.7542972139   13.7402650847
Br   6.75047143485   14.8468822724   13.7409313870
Br   1.57075727767   9.70461390406   13.8909282363
Br   3.85526445991   8.35316693575   10.7383529860
Br   4.42636067541   16.2100094915   16.8039187007
Br   8.05302223248   12.1172583270   16.8065663190
Br  0.301614571050   12.4457214721   10.7410593937
lattice vectors
   8.32199954990    0.00000000000    0.00000000000
   0.00000000000    16.3680000306    0.00000000000
   0.00000000000    0.00000000000    33.6599998474
