384

C   -0.003808   -0.248884   21.339895
C   -0.006412   -0.342853   248.408473
C   -0.012564   -0.088603   78.287371
C   -0.015481   0.079089   61.974723
C   -0.016061   0.264412   42.885458
C   -0.017914   -0.305818   226.711448
C   0.020862   -0.036514   75.589605
C   0.021509   -0.368067   205.105975
C   -0.021934   0.113306   59.261422
C   -0.022070   -0.407691   223.924065
C   -0.023306   -0.444151   229.400064
C   -0.023371   -0.045201   56.528464
C   0.023522   -0.230168   24.134637
C   0.023775   0.195718   151.088661
C   0.033238   -0.220485   10.420754
C   0.035461   -0.336769   196.987948
C   0.035861   0.101989   29.469633
C   -0.036104   0.295422   34.963418
C   0.036568   -0.469208   212.943611
C   -0.039164   -0.195411   2.160168
C   0.040897   0.151128   -3.240998
C   0.041144   -0.530670   232.115241
C   -0.044393   -0.006754   26.795659
C   0.046098   0.111449   32.237972
C   0.046607   -0.417252   234.868955
C   -0.046828   0.062990   126.833073
C   0.048460   -0.557676   202.470103
C   -0.049948   -0.566040   199.682819
C   -0.053421   -0.267188   7.689060
C   -0.054310   0.263917   153.913042
C   0.055384   0.056664   -0.553904
C   -0.056568   -0.295915   4.861828
C   -0.059818   0.543805   45.634085
C   0.063868   -0.159926   18.572012
C   -0.066970   -0.213561   237.547945
C   -0.068032   -0.430972   116.187007
C   -0.068444   0.490021   48.425128
C   -0.072498   0.164095   51.060143
C   -0.072769   -0.615595   215.617961
C   -0.074506   0.073309   53.736375
C   -0.079408   -0.086892   240.231351
C   -0.085036   -0.334092   245.736282
C   0.086659   -0.280915   194.291086
C   -0.086812   -0.465741   207.828996
C   0.087228   0.233034   64.652594
C   -0.092499   -0.241777   113.489481
C   0.094076   0.159674   40.141505
C   0.094823   -0.121781   72.858230
C   -0.097088   -0.059438   243.027902
C   0.100971   -0.290667   251.230152
C   -0.102989   -0.146817   110.719656
C   -0.117211   0.399336   148.408957
C   -0.124974   -0.563892   221.166078
C   -0.131667   -0.504721   118.915273
C   -0.131880   -0.006798   129.514992
C   0.136967   -0.037168   13.154441
C   -0.140898   0.352986   169.804959
C   -0.150722   0.576602   156.568454
C   0.156837   -0.036270   191.536345
C   -0.159586   0.805556   164.711188
C   0.161355   0.355558   172.526840
C   -0.162673   -0.695560   218.424989
C   0.164260   0.025320   70.030604
C   -0.171380   -0.355057   91.738232
C   -0.196656   0.767033   162.024744
C   -0.200814   0.536038   142.927416
C   -0.202328   0.578847   145.685446
C   -0.206411   0.130581   137.640890
C   -0.207580   -0.232068   94.432050
C   -0.215411   0.327503   140.285274
C   -0.216559   -0.439410   121.691669
C   0.222482   0.258581   67.367726
C   -0.228528   0.676993   159.257057
C   0.229264   -0.034078   15.927012
C   -0.230281   0.077617   132.186131
C   -0.237374   -0.267793   97.205333
C   -0.262782   -0.002989   134.886557
C   -0.267407   -0.422922   89.083387
C   0.269271   0.295322   178.015556
C   0.287745   -0.548150   103.944239
C   0.306781   0.408983   175.268296
C   0.310629   -0.100290   188.838330
C   0.311378   0.142388   180.699103
C   -0.314256   -0.321888   86.244859
C   -0.315909   -0.215007   108.038515
C   -0.337671   -0.409206   99.868955
C   -0.356256   -0.130418   83.497740
C   0.372684   -0.447218   101.240111
C   0.375551   -0.228791   186.189040
C   0.390875   -0.050462   183.358003
C   0.406520   -0.215091   106.633255
C   -0.436711   -0.443312   105.351131
C   0.438260   -0.047505   84.967813
C   -0.467658   -0.567153   102.569164
C   0.472225   -0.348912   87.693377
C   0.530658   -0.391588   98.511546
C   0.541079   0.035167   133.600826
C   0.565878   0.622266   160.626897
C   0.566011   -0.351879   95.824660
C   0.579646   0.188289   136.243525
C   0.582502   -0.116138   109.320410
C   0.589913   0.539153   144.296805
C   0.593077   0.532933   157.947919
C   0.593529   -0.236570   93.118424
C   0.594447   0.459799   147.003984
C   0.597362   0.333482   138.928723
C   0.603538   -0.374112   90.372731
C   0.608486   0.799816   166.115172
C   0.609816   -0.563569   219.741965
C   0.612769   0.697961   163.333407
C   0.614547   0.403284   141.615578
C   0.619294   0.100014   130.893478
C   0.641326   -0.413556   120.273280
C   0.643830   -0.536022   217.037583
C   0.648471   -0.232559   241.632902
C   0.654171   -0.352243   244.345128
C   0.654941   -0.606494   222.537997
C   0.668180   -0.516978   117.610280
C   0.672809   -0.223327   112.118205
C   0.677717   -0.175439   6.271213
C   0.695495   0.374187   44.300803
C   0.696600   0.434714   155.234499
C   0.698328   -0.255980   79.780081
C   0.698421   -0.414708   114.834406
C   0.705666   0.407519   47.030156
C   0.707666   0.020800   128.183413
C   0.714203   -0.232332   238.918775
C   0.719468   0.098878   55.097669
C   0.719784   0.189222   52.425858
C   0.737502   -0.129641   247.099881
C   0.737522   -0.067960   19.990779
C   0.739041   0.326908   49.726481
C   0.739871   -0.225907   125.447328
C   0.744532   -0.177955   3.551347
C   0.744831   -0.161488   9.025064
C   0.744903   0.100275   57.837271
C   0.750343   -0.491410   225.321563
C   0.754115   0.323585   149.743239
C   0.755520   0.150080   60.598105
C   0.756021   -0.321659   198.399880
C   0.756025   0.273135   152.518348
C   0.763909   -0.134255   236.214972
C   0.765982   -0.441571   201.020450
C   0.769150   -0.456684   206.436586
C   0.770512   -0.390795   228.032942
C   0.771249   0.074839   0.875489
C   0.778461   -0.390079   230.746401
C   0.780820   -0.435157   214.346707
C   0.782412   -0.010432   28.137558
C   0.786814   -0.185712   22.720525
C   0.786937   -0.008947   76.953455
C   0.787487   -0.069799   25.459047
C   0.787764   0.252592   41.517610
C   0.789410   0.320057   171.128858
C   0.792741   0.037435   33.537819
C   0.799474   -0.181619   249.823135
C   0.808831   -0.348106   233.477550
C   0.812543   0.043476   74.213945
C   0.838048   0.104114   63.285052
C   0.841786   -0.179696   11.812714
C   0.843681   -0.196626   195.653819
C   0.862377   -0.389657   211.595217
C   0.862540   0.013218   30.834070
C   0.863553   -0.188394   192.912553
C   0.866019   0.337555   38.706444
C   0.866859   0.240823   -1.854457
C   0.871917   -0.433672   203.740691
C   0.881427   -0.014549   71.463976
C   0.900087   -0.144171   252.567901
C   0.920364   0.116053   65.985980
C   0.968361   -0.181550   17.268593
C   0.974429   -0.195906   14.537881
C   1.009654   0.300877   173.926792
C   1.013503   0.164337   68.756533
C   1.030235   -0.068360   190.218486
C   1.062922   0.099551   179.310953
C   1.092307   0.248676   176.655341
C   1.137444   -0.051768   184.815432
C   1.154965   0.111059   182.038976
C   1.171011   -0.068713   187.501658
C   1.636517   3.524737   105.311545
C   1.679069   3.603067   102.493634
C   1.680358   3.750326   108.001031
C   1.752038   3.827934   110.709348
C   1.809709   3.719900   86.310622
C   1.814424   3.729043   89.089577
C   1.854129   3.905222   94.357058
C   1.855386   3.847250   91.755862
C   1.861434   4.643650   142.941070
C   1.865722   3.907840   83.580223
C   1.871146   4.703405   145.772116
C   1.895639   3.711425   99.810025
C   1.915210   3.790673   113.506332
C   1.932211   3.893734   97.118204
C   1.960867   4.347096   140.310180
C   1.982307   4.136776   137.644794
C   2.011426   4.378450   32.332856
C   2.020794   4.523549   148.524339
C   2.034490   4.122900   134.828168
C   2.044659   3.690813   116.215608
C   2.044800   4.692088   162.093011
C   2.052014   4.314430   35.129556
C   2.060738   4.220839   29.465112
C   2.074951   4.691140   159.249451
C   2.109006   3.645771   121.671514
C   2.112170   4.711923   164.807051
C   2.118001   4.048290   53.806131
C   2.123304   3.998403   132.081433
C   2.128597   3.340967   215.734278
C   2.133565   3.541271   118.848823
C   2.134141   3.453746   218.487615
C   2.141375   4.334555   151.159034
C   2.153369   4.514340   156.614754
C   2.161088   4.277989   153.928621
C   2.161669   4.164585   129.433110
C   2.194317   3.503743   221.183081
C   2.202857   3.567709   213.001562
C   2.205918   3.445090   207.844959
C   2.207145   3.989505   243.127729
C   2.208319   4.072267   13.163396
C   2.219376   4.160782   59.316536
C   2.219770   3.981081   56.649268
C   2.221859   4.195984   51.083842
C   2.222759   4.104085   62.059692
C   2.224488   4.039106   240.313262
C   2.230759   4.051969   26.861762
C   2.233383   3.840080   196.950914
C   2.245044   3.970683   126.786455
C   2.248798   3.432775   205.086770
C   2.261808   3.857124   78.302648
C   2.281478   3.573195   199.660755
C   2.285666   4.436862   45.679052
C   2.287874   3.831906   10.464804
C   2.289175   3.979561   72.873478
C   2.289906   4.211249   40.261904
C   2.297453   4.300216   64.788144
C   2.298582   3.891706   237.568735
C   2.299332   3.421620   202.380864
C   2.306444   4.056322   15.973425
C   2.309037   4.242426   42.963612
C   2.311884   3.882644   21.326997
C   2.313904   4.050226   70.135833
C   2.321590   4.545710   48.417587
C   2.322964   4.415549   169.895669
C   2.330513   3.658371   223.889595
C   2.334591   4.055191   -0.422565
C   2.334847   3.777809   248.471204
C   2.336972   4.170835   -3.156250
C   2.338741   3.895111   18.621929
C   2.340858   3.771999   7.763299
C   2.343107   3.864389   194.175558
C   2.344392   3.804022   251.333287
C   2.344836   4.088291   75.620068
C   2.345517   3.633823   234.862377
C   2.346291   3.723591   245.806998
C   2.349568   3.646919   226.700979
C   2.355534   3.881361   5.026366
C   2.357890   3.934182   24.165600
C   2.359633   3.992027   2.297569
C   2.389268   3.683999   229.411246
C   2.391548   4.334288   67.433567
C   2.392291   3.701102   103.909842
C   2.429568   4.417619   178.023872
C   2.440163   3.614873   106.603617
C   2.446082   3.971236   191.458283
C   2.449985   4.571174   175.193737
C   2.457570   3.457984   232.053065
C   2.471627   3.722406   109.362710
C   2.505390   4.228652   180.693629
C   2.516505   4.453396   172.497260
C   2.529331   3.934810   188.755688
C   2.566385   3.684743   101.258991
C   2.601266   3.833655   87.712191
C   2.604413   3.679965   112.066441
C   2.613933   4.619075   144.349517
C   2.616540   3.964942   90.376148
C   2.629190   3.931086   85.052923
C   2.644247   3.952169   186.113834
C   2.645328   4.022006   183.355734
C   2.672608   3.843444   95.710784
C   2.676650   4.536743   147.087033
C   2.692675   3.710391   93.079077
C   2.698237   3.752743   98.468951
C   2.721138   4.420261   141.679858
C   2.748767   3.674154   114.780816
C   2.756617   4.175135   30.867940
C   2.769915   4.255015   136.257374
C   2.770120   4.264865   138.949624
C   2.772858   4.219974   33.620369
C   2.807254   4.656006   160.657911
C   2.826244   4.177959   133.531385
C   2.842394   4.674108   163.389683
C   2.884266   3.612141   120.203999
C   2.896074   4.623337   149.827732
C   2.906321   3.419135   217.099241
C   2.906977   4.071740   55.209864
C   2.912009   3.471670   214.377809
C   2.914947   3.660452   117.505249
C   2.917657   4.396264   152.538588
C   2.925945   3.841718   79.830686
C   2.926562   4.163650   52.508384
C   2.941142   4.602788   157.989314
C   2.941504   4.456151   155.265190
C   2.948272   3.560214   219.809031
C   2.961013   3.997955   130.790210
C   2.964970   4.045838   241.718614
C   2.979167   4.062329   60.674068
C   2.980998   4.072833   28.228318
C   3.000172   3.422189   206.430159
C   3.005226   4.208497   128.122329
C   3.013824   3.935290   238.978211
C   3.015207   3.896366   11.875398
C   3.020911   3.823796   195.606019
C   3.022276   4.036304   14.531494
C   3.024622   4.214931   63.400814
C   3.029590   4.148745   57.940536
C   3.031441   4.390573   38.851904
C   3.032918   3.801424   198.321992
C   3.038073   3.512285   222.536152
C   3.043636   4.042783   125.389861
C   3.047245   4.186984   44.353596
C   3.054530   3.926073   244.422764
C   3.060998   4.597927   166.039804
C   3.062005   3.465291   211.621200
C   3.062106   4.095578   74.229439
C   3.064924   4.278981   49.759375
C   3.067867   3.518139   203.714287
C   3.072165   3.783112   249.920796
C   3.087550   3.962147   22.720038
C   3.088361   4.194622   41.582538
C   3.091197   4.001550   25.500595
C   3.093031   4.036431   71.523904
C   3.093333   3.447971   201.009431
C   3.093803   3.871517   236.190823
C   3.095603   3.968195   77.035201
C   3.097856   3.924747   19.992413
C   3.099199   3.736508   9.125858
C   3.104242   4.435888   47.046086
C   3.123707   3.593015   228.029326
C   3.124273   3.638593   225.274698
C   3.131986   4.173249   -1.735825
C   3.133452   4.244092   68.844266
C   3.134287   3.864096   6.398653
C   3.134519   4.016054   3.688481
C   3.135555   3.950285   0.958321
C   3.138743   3.943555   17.242774
C   3.153650   3.540723   233.496689
C   3.158252   3.763573   247.183105
C   3.173365   3.865968   192.841533
C   3.176269   4.411796   66.093977
C   3.177979   4.376365   176.617950
C   3.193077   3.863203   252.649490
C   3.244136   3.467297   230.740889
C   3.256461   4.328367   179.318233
C   3.257679   4.423641   171.113260
C   3.265073   4.561861   173.903955
C   3.279036   3.971465   190.116919
C   3.391042   4.167729   182.013824
C   3.423815   3.929674   187.444004
C   3.430143   3.922329   184.746730
Cl   0.048551   -0.615268   210.329412
Cl   -0.050656   -0.519176   124.199443
Cl   0.079376   0.439866   37.430587
Cl   -0.103412   0.933866   167.416666
Cl   -0.105093   -0.425711   81.011565
Cl   0.148392   -0.297800   -5.694372
Cl   0.405767   -0.124965   82.238779
Cl   0.486523   -0.313497   122.971390
Cl   0.539388   0.372603   168.441633
Cl   0.601101   -0.331399   209.142592
Cl   0.701776   0.186604   -4.583877
Cl   0.704992   0.339186   36.232471
Cl   2.105302   3.673032   81.081587
Cl   2.230364   4.601858   37.586275
Cl   2.314287   4.173617   124.078908
Cl   2.329626   3.627594   210.314448
Cl   2.332302   4.746598   167.372903
Cl   2.433926   3.805683   -5.621873
Cl   2.618385   3.883135   82.311338
Cl   2.816231   4.366844   36.387032
Cl   2.891760   3.834674   122.900589
Cl   2.932932   3.365847   209.139348
Cl   3.042866   4.123842   -4.472256
Cl   3.108058   4.304218   168.462352
