38

H  0.428876332548   3.75549842922   2.65405266962
C   1.19768250731   3.83305221007   1.91552139576
C   2.35627268712   3.86786663420   2.82316664412
F   2.24440016159   2.77297823952   3.66533273496
F   2.23447847542   4.98985921608   3.62995835158
H   1.19694460940   2.94626022101   1.27635481256
H   1.10229607109   4.74828506910   1.32534969394
C   3.63775876574   3.84890160494   2.05837237941
C   4.84672289156   3.87301325290   2.92972885772
F   4.80707339958   2.79793259426   3.79487716559
F   4.81055122031   5.01375752371   3.70258864515
H   3.64822532200   2.94623233030   1.43587437789
H   3.65121740691   4.71595141195   1.38784956543
C   6.09685072828   3.83956548847   2.08547426709
C   7.34201702093   3.86668252025   2.92259999632
F   7.33838875829   2.79349063463   3.79018441026
F   7.33831257155   5.01091981948   3.69170687362
H   6.09024252705   2.93253964844   1.47065688017
H   6.09554473586   4.70526748183   1.41256235663
C   8.58856654095   3.83606123858   2.07857893869
C   9.83410809644   3.86918173939   2.92470622386
F   9.85393952890   2.79988441395   3.79807938083
F   9.85227364380   5.01643926995   3.68709579987
H   8.59072963580   2.93123376752   1.45971580739
H   8.58927437107   4.70301804636   1.40526257251
C   11.0740435971   3.83639404082   2.09042502352
C   12.3178747087   3.86986715809   2.93678974839
F   12.3820333643   2.79059791140   3.79636913573
F   12.3594614747   5.00507279183   3.72091278936
H   11.0857695974   2.92834251187   1.47683037994
H   11.0835866387   4.70102361051   1.41632070552
C   13.5121656478   3.85560672783   2.05942740573
C   14.7943908381   3.88438312570   2.79561991525
F   15.0109053679   2.78305669370   3.59572413173
F   14.9938719743   4.99148737452   3.58845880789
H   13.5139992035   2.95370786444   1.43338033397
H   13.4972120933   4.72258142307   1.38831280653
H   15.5325186347   3.89362720367   2.00873924274
lattice vectors
   16.3680000000    0.00000000000    0.00000000000
   0.00000000000    8.32200000000    0.00000000000
   0.00000000000    0.00000000000    8.32200000000
