138

H   -0.186457   0.042798   0.427946
C   -0.610748   -0.352100   1.382419
H   -1.662494   -0.241344   1.442136
H   -0.555980   -1.417602   1.446441
C   0.166720   0.406324   2.518973
F   1.514861   0.327521   2.398583
F   0.125297   1.756941   2.383250
C   -0.366019   -0.098913   3.896942
H   -1.431062   -0.018137   3.949108
H   -0.325781   -1.171775   3.949363
C   0.342148   0.587242   5.130241
F   1.683387   0.499914   5.094791
F   0.298398   1.933231   5.087813
C   -0.300500   -0.022530   6.439794
H   -1.358817   0.080611   6.445900
H   -0.274915   -1.099526   6.447650
C   0.353300   0.604353   7.724607
F   1.692196   0.507912   7.717130
F   0.301673   1.948195   7.720709
C   -0.302321   -0.026165   9.019750
H   -1.356959   0.088469   9.044440
H   -0.283055   -1.104829   9.019732
C   0.368783   0.595935   10.305335
F   1.702593   0.502906   10.319255
F   0.294638   1.926629   10.342027
C   -0.253536   -0.085969   11.611035
F   -1.619179   -0.045833   11.609835
H   -0.127742   -1.141422   11.603533
C   0.367979   0.584546   12.922651
F   1.703174   0.499500   12.906491
F   0.291100   1.915670   12.899174
C   -0.298015   -0.054717   14.207113
H   -1.355539   0.048922   14.194911
H   -0.263761   -1.129952   14.205785
C   0.359957   0.578641   15.500431
F   1.700856   0.500437   15.489983
F   0.300564   1.922819   15.499498
C   -0.282785   -0.058825   16.800345
H   -1.345974   0.028094   16.805656
H   -0.231542   -1.129439   16.810286
C   0.374677   0.583111   18.088088
F   1.703782   0.495842   18.102675
F   0.297434   1.919573   18.114167
C   -0.296385   -0.048195   19.399718
H   -1.353506   0.071972   19.398921
F   -0.253478   -1.412976   19.391800
C   0.375381   0.569057   20.716245
F   1.706513   0.493744   20.692262
F   0.290424   1.905438   20.704651
C   -0.268837   -0.095728   22.003143
H   -1.338053   -0.032197   22.002853
H   -0.197796   -1.162344   21.989404
C   0.369936   0.550813   23.303034
F   1.715389   0.498417   23.305066
F   0.290283   1.893350   23.304988
C   -0.262366   -0.101228   24.601540
H   -1.339744   -0.077733   24.607830
H   -0.149382   -1.157615   24.615371
C   0.373115   0.579623   25.882822
F   1.710106   0.505691   25.919706
F   0.285316   1.908420   25.883237
C   -0.268626   -0.071402   27.193530
F   -1.632966   -0.038143   27.167757
H   -0.133374   -1.124512   27.223238
C   0.332079   0.607658   28.505574
F   1.670596   0.533398   28.489518
F   0.233913   1.952313   28.497462
C   -0.321851   0.000000   29.765092
H   -1.390483   -0.378655   29.726193
C   0.321851   0.000000   30.934693
F   1.645881   0.475967   31.008329
C   -0.285576   -0.508772   32.252453
H   -1.369716   -0.539772   32.205272
H   -0.142345   -1.542442   32.435494
C   0.276239   0.356088   33.451897
F   1.639106   0.475500   33.513819
F   0.006905   1.628093   33.265992
C   -0.351945   -0.159595   34.818443
H   -1.407275   -0.031924   34.820242
F   -0.362844   -1.536051   34.932779
C   0.350932   0.557267   36.078727
F   1.681179   0.475725   36.076478
F   0.288640   1.896620   35.963018
C   -0.321004   -0.028150   37.384030
H   -1.370716   0.106771   37.369351
H   -0.323183   -1.110034   37.380282
C   0.338924   0.594471   38.679024
F   1.679110   0.501940   38.676248
F   0.291351   1.940356   38.674066
C   -0.307854   -0.043632   39.979600
H   -1.368352   0.047703   40.010593
H   -0.265303   -1.117773   39.974715
C   0.366202   0.588941   41.264841
F   1.700800   0.499895   41.273848
F   0.290090   1.919856   41.293093
C   -0.251631   -0.085029   42.579536
F   -1.617317   -0.042569   42.580055
H   -0.129268   -1.141728   42.578008
C   0.369841   0.582691   43.898477
F   1.705450   0.500523   43.883495
F   0.290123   1.913343   43.884020
C   -0.297463   -0.069770   45.179021
H   -1.361225   0.010628   45.147144
H   -0.241829   -1.140544   45.167752
C   0.342410   0.566809   46.482945
F   1.686104   0.493863   46.490164
F   0.289362   1.913482   46.478748
C   -0.310235   -0.061121   47.785272
H   -1.367011   0.049621   47.804038
H   -0.283687   -1.137136   47.812865
C   0.366281   0.584467   49.063575
F   1.695337   0.494288   49.069948
F   0.295425   1.922245   49.082716
C   -0.296798   -0.038027   50.382811
H   -1.354849   0.077309   50.385514
F   -0.249823   -1.403630   50.388474
C   0.374768   0.596498   51.689738
F   1.702909   0.504154   51.673665
F   0.295751   1.931651   51.658378
C   -0.279981   -0.034803   52.975570
H   -1.339055   0.068930   52.975339
H   -0.246679   -1.108518   52.956076
C   0.377233   0.593799   54.269078
F   1.715952   0.509965   54.276438
F   0.309033   1.935364   54.286159
C   -0.264968   -0.044989   55.549254
H   -1.332096   0.018646   55.555197
H   -0.197705   -1.112899   55.552084
C   0.344004   0.566756   56.866892
F   1.681561   0.490951   56.963394
F   0.273273   1.896634   56.963970
C   -0.367424   -0.202209   58.075442
F   -1.741611   -0.180881   57.985725
H   -0.237394   -1.254859   58.003675
C   0.085987   0.307334   59.481346
F   1.394039   0.192622   59.700613
F   -0.018088   1.616500   59.655729
H   -0.544359   -0.297995   60.234381
