138

H   -0.186457   0.042798   0.427946
C   -0.610748   -0.352100   1.382419
H   -1.662494   -0.241344   1.442136
H   -0.555980   -1.417602   1.446441
C   0.166720   0.406324   2.518973
F   1.514861   0.327521   2.398583
F   0.125297   1.756941   2.383250
C   -0.366019   -0.098913   3.896942
H   -1.431062   -0.018137   3.949108
H   -0.325781   -1.171775   3.949363
C   0.342148   0.587242   5.130241
F   1.683387   0.499914   5.094791
F   0.298398   1.933231   5.087813
C   -0.300500   -0.022530   6.439794
H   -1.358817   0.080611   6.445900
H   -0.274915   -1.099526   6.447650
C   0.353300   0.604353   7.724607
F   1.692196   0.507912   7.717130
F   0.301673   1.948195   7.720709
C   -0.302321   -0.026165   9.019750
H   -1.356959   0.088469   9.044440
H   -0.283055   -1.104829   9.019732
C   0.368783   0.595935   10.305335
F   1.702593   0.502906   10.319255
F   0.294638   1.926629   10.342027
C   -0.253536   -0.085969   11.611035
F   -1.619179   -0.045833   11.609835
H   -0.127742   -1.141422   11.603533
C   0.367979   0.584546   12.922651
F   1.703174   0.499500   12.906491
F   0.291100   1.915670   12.899174
C   -0.298015   -0.054717   14.207113
H   -1.355539   0.048922   14.194911
H   -0.263761   -1.129952   14.205785
C   0.359957   0.578641   15.500431
F   1.700856   0.500437   15.489983
F   0.300564   1.922819   15.499498
C   -0.282785   -0.058825   16.800345
H   -1.345974   0.028094   16.805656
H   -0.231542   -1.129439   16.810286
C   0.374677   0.583111   18.088088
F   1.703782   0.495842   18.102675
F   0.297434   1.919573   18.114167
C   -0.296385   -0.048195   19.399718
H   -1.353506   0.071972   19.398921
F   -0.253478   -1.412976   19.391800
C   0.375381   0.569057   20.716245
F   1.706513   0.493744   20.692262
F   0.290424   1.905438   20.704651
C   -0.268837   -0.095728   22.003143
H   -1.338053   -0.032197   22.002853
H   -0.197796   -1.162344   21.989404
C   0.369936   0.550813   23.303034
F   1.715389   0.498417   23.305066
F   0.290283   1.893350   23.304988
C   -0.262366   -0.101228   24.601540
H   -1.339744   -0.077733   24.607830
H   -0.149382   -1.157615   24.615371
C   0.373115   0.579623   25.882822
F   1.710106   0.505691   25.919706
F   0.285316   1.908420   25.883237
C   -0.268626   -0.071402   27.193530
F   -1.632966   -0.038143   27.167757
H   -0.133374   -1.124512   27.223238
C   0.332079   0.607658   28.505574
F   1.670596   0.533398   28.489518
F   0.233913   1.952313   28.497462
C   -0.321851   0.000000   29.765092
H   -1.390483   -0.378655   29.726193
C   0.321851   0.000000   30.934693
F   1.712988   1.466610   31.008329
C   -0.407525   -0.144166   32.252453
H   -1.462748   -1.183341   32.205272
H   -0.536708   0.261718   32.435494
C   0.358989   0.174664   33.451897
F   1.706324   1.460187   33.513819
F   0.428051   -0.414712   33.265992
C   -0.381259   -0.298646   34.818443
H   -1.367585   -1.351060   34.820242
F   -0.748040   0.047079   34.932779
C   0.483206   0.194743   36.078727
F   1.747021   1.500768   36.076478
F   0.769686   -0.212076   35.963018
C   -0.317352   -0.302780   37.384030
H   -1.296375   -1.351644   37.369351
H   -0.599468   -0.024872   37.380282
C   0.481236   0.173515   38.679024
F   1.751807   1.491984   38.676248
F   0.783624   -0.220778   38.674066
C   -0.308657   -0.286071   39.979600
H   -1.309380   -1.334073   40.010593
H   -0.545564   0.033038   39.974715
C   0.506153   0.201295   41.264841
F   1.772229   1.513464   41.273848
F   0.777101   -0.216690   41.293093
C   -0.265064   -0.221050   42.579536
F   -1.573226   -1.551191   42.580055
H   -0.420365   0.170637   42.578008
C   0.508051   0.206428   43.898477
F   1.776883   1.517793   43.883495
F   0.775447   -0.214972   43.884020
C   -0.305385   -0.269270   45.179021
H   -1.312092   -1.317593   45.147144
H   -0.528784   0.061605   45.167752
C   0.477444   0.184042   46.482945
F   1.756472   1.500830   46.490164
F   0.774748   -0.215743   46.478748
C   -0.315483   -0.283845   47.785272
H   -1.307588   -1.333274   47.804038
H   -0.568333   0.020292   47.812865
C   0.505071   0.202529   49.063575
F   1.765501   1.509638   49.069948
F   0.782872   -0.212155   49.082716
C   -0.296527   -0.276843   50.382811
H   -1.288675   -1.328693   50.385514
F   -0.604597   0.121975   50.388474
C   0.516383   0.207613   51.689738
F   1.775369   1.514399   51.673665
F   0.785621   -0.214275   51.658378
C   -0.279449   -0.261434   52.975570
H   -1.275587   -1.311268   52.975339
H   -0.525179   0.048632   52.956076
C   0.518066   0.210693   54.269078
F   1.789471   1.525494   54.276438
F   0.799412   -0.202407   54.286159
C   -0.267584   -0.244296   55.549254
H   -1.281880   -1.291532   55.555197
H   -0.479008   0.097071   55.552084
C   0.478970   0.185595   56.866892
F   1.751330   1.497196   56.963394
F   0.754846   -0.226924   56.963970
C   -0.407240   -0.302569   58.075442
F   -1.729083   -1.635452   57.985725
H   -0.554087   0.095476   58.003675
C   0.162601   0.003513   59.481346
F   1.396392   1.296684   59.700613
F   0.400909   -0.435853   59.655729
H   -0.602937   -0.448684   60.234381
