138

H   -0.186457   0.042798   0.427946
C   -0.610748   -0.352100   1.382419
H   -1.662494   -0.241344   1.442136
H   -0.555980   -1.417602   1.446441
C   0.166720   0.406324   2.518973
F   1.514861   0.327521   2.398583
F   0.125297   1.756941   2.383250
C   -0.366019   -0.098913   3.896942
H   -1.431062   -0.018137   3.949108
H   -0.325781   -1.171775   3.949363
C   0.342148   0.587242   5.130241
F   1.683387   0.499914   5.094791
F   0.298398   1.933231   5.087813
C   -0.300500   -0.022530   6.439794
H   -1.358817   0.080611   6.445900
H   -0.274915   -1.099526   6.447650
C   0.353300   0.604353   7.724607
F   1.692196   0.507912   7.717130
F   0.301673   1.948195   7.720709
C   -0.302321   -0.026165   9.019750
H   -1.356959   0.088469   9.044440
H   -0.283055   -1.104829   9.019732
C   0.368783   0.595935   10.305335
F   1.702593   0.502906   10.319255
F   0.294638   1.926629   10.342027
C   -0.253536   -0.085969   11.611035
F   -1.619179   -0.045833   11.609835
H   -0.127742   -1.141422   11.603533
C   0.367979   0.584546   12.922651
F   1.703174   0.499500   12.906491
F   0.291100   1.915670   12.899174
C   -0.298015   -0.054717   14.207113
H   -1.355539   0.048922   14.194911
H   -0.263761   -1.129952   14.205785
C   0.359957   0.578641   15.500431
F   1.700856   0.500437   15.489983
F   0.300564   1.922819   15.499498
C   -0.282785   -0.058825   16.800345
H   -1.345974   0.028094   16.805656
H   -0.231542   -1.129439   16.810286
C   0.374677   0.583111   18.088088
F   1.703782   0.495842   18.102675
F   0.297434   1.919573   18.114167
C   -0.296385   -0.048195   19.399718
H   -1.353506   0.071972   19.398921
F   -0.253478   -1.412976   19.391800
C   0.375381   0.569057   20.716245
F   1.706513   0.493744   20.692262
F   0.290424   1.905438   20.704651
C   -0.268837   -0.095728   22.003143
H   -1.338053   -0.032197   22.002853
H   -0.197796   -1.162344   21.989404
C   0.369936   0.550813   23.303034
F   1.715389   0.498417   23.305066
F   0.290283   1.893350   23.304988
C   -0.262366   -0.101228   24.601540
H   -1.339744   -0.077733   24.607830
H   -0.149382   -1.157615   24.615371
C   0.373115   0.579623   25.882822
F   1.710106   0.505691   25.919706
F   0.285316   1.908420   25.883237
C   -0.268626   -0.071402   27.193530
F   -1.632966   -0.038143   27.167757
H   -0.133374   -1.124512   27.223238
C   0.332079   0.607658   28.505574
F   1.670596   0.533398   28.489518
F   0.233913   1.952313   28.497462
C   -0.321851   0.000000   29.765092
H   -1.390483   -0.378655   29.726193
C   0.321851   0.000000   30.934693
F   0.732044   0.119926   31.008329
C   -0.401066   0.253241   32.252453
H   -0.701596   -0.007421   32.205272
H   -1.028672   0.954988   32.435494
C   0.300470   -0.157478   33.451897
F   0.729991   0.118473   33.513819
F   1.048693   -1.045118   33.265992
C   -0.193714   0.011534   34.818443
H   -0.384757   -0.343702   34.820242
F   -1.081632   0.893810   34.932779
C   0.449165   -0.267509   36.078727
F   0.741024   0.129218   36.076478
F   1.294281   -1.144870   35.963018
C   -0.101183   -0.064981   37.384030
H   -0.286111   -0.423424   37.369351
H   -0.797426   0.630135   37.380282
C   0.469980   -0.294540   38.679024
F   0.757346   0.111825   38.676248
F   1.323106   -1.172292   38.674066
C   -0.107735   -0.051622   39.979600
H   -0.323482   -0.384830   40.010593
H   -0.787423   0.650092   39.974715
C   0.473485   -0.283924   41.264841
F   0.761645   0.118754   41.273848
F   1.309598   -1.159436   41.293093
C   -0.119803   -0.010451   42.579536
F   -0.445966   -0.391219   42.580055
H   -0.767617   0.700703   42.578008
C   0.470407   -0.278963   43.898477
F   0.763252   0.119554   43.883495
F   1.305418   -1.155239   43.884020
C   -0.121853   -0.032125   45.179021
H   -0.345477   -0.359145   45.147144
H   -0.795989   0.670809   45.167752
C   0.453095   -0.275851   46.482945
F   0.753962   0.118829   46.490164
F   1.305310   -1.155526   46.478748
C   -0.119597   -0.040993   47.785272
H   -0.321901   -0.385716   47.804038
H   -0.804631   0.657784   47.812865
C   0.470628   -0.281027   49.063575
F   0.756626   0.120945   49.069948
F   1.312515   -1.159592   49.082716
C   -0.101269   -0.052365   50.382811
H   -0.300949   -0.400373   50.385514
F   -0.967230   0.837912   50.388474
C   0.480561   -0.286566   51.689738
F   0.764929   0.116561   51.673665
F   1.318647   -1.165555   51.658378
C   -0.094844   -0.050085   52.975570
H   -0.302249   -0.390897   52.975339
H   -0.776651   0.648961   52.956076
C   0.479463   -0.284193   54.269078
F   0.772042   0.116201   54.276438
F   1.324473   -1.164506   54.286159
C   -0.097508   -0.039650   55.549254
H   -0.332782   -0.356762   55.555197
H   -0.766793   0.664453   55.552084
C   0.453474   -0.275404   56.866892
F   0.750914   0.119526   56.963394
F   1.290312   -1.148856   56.963970
C   -0.225122   0.034929   58.075442
F   -0.567073   -0.334451   57.985725
H   -0.868349   0.745465   58.003675
C   0.219879   -0.175368   59.481346
F   0.484664   0.236943   59.700613
F   1.034770   -1.044133   59.655729
H   -0.332509   0.050728   60.234381
