138

H   20.132142   15.524379   53.512372
C   19.351055   15.129481   52.855454
H   18.372750   15.240237   53.333713
H   19.531780   14.063979   52.681129
C   19.369419   15.887905   51.543233
F   20.635123   15.809102   50.973881
F   19.191773   17.238522   51.797976
C   18.302554   15.382668   50.560877
H   17.320744   15.463444   51.049744
H   18.477187   14.309806   50.403243
C   18.223387   16.068823   49.192330
F   19.442847   15.981495   48.551518
F   17.998877   17.414812   49.366387
C   17.108511   15.459050   48.315175
H   16.151700   15.562192   48.842837
H   17.292529   14.382055   48.203348
C   16.965118   16.085934   46.923506
F   18.170254   15.989493   46.258654
F   16.715161   17.429776   47.067645
C   15.848955   15.455416   46.063577
H   14.884577   15.570050   46.574178
H   16.031471   14.376752   45.961610
C   15.721256   16.077516   44.662254
F   16.910924   15.984487   43.981534
F   15.433559   17.408210   44.780984
C   14.637341   15.395611   43.772212
F   13.421366   15.435748   44.453060
H   14.914365   14.340159   43.626008
C   14.445568   16.066126   42.376874
F   15.649911   15.981081   41.722411
F   14.184730   17.397251   42.549520
C   13.326762   15.426864   41.530657
H   12.379509   15.530503   42.073950
H   13.522675   14.351629   41.422704
C   13.181926   16.060222   40.130052
F   14.387489   15.982018   39.468364
F   12.923588   17.404400   40.275477
C   12.075916   15.422756   39.258984
H   11.117663   15.509675   39.788362
H   12.280680   14.352142   39.133176
C   11.932030   16.064692   37.864233
F   13.116320   15.977423   37.185755
F   11.645879   17.401154   37.994258
C   10.794261   15.433386   36.997492
H   9.839266   15.553553   37.532046
F   11.045463   14.068605   36.866193
C   10.652799   16.050638   35.568415
F   11.855864   15.975325   34.923627
F   10.378199   17.387019   35.735139
C   9.556020   15.385853   34.707099
H   8.598744   15.449384   35.242347
H   9.789270   14.319237   34.592500
C   9.388938   16.032394   33.311395
F   10.588493   15.979997   32.638768
F   9.111487   17.374931   33.464193
C   8.295104   15.380353   32.435136
H   7.333525   15.403847   32.965251
H   8.550512   14.323966   32.276573
C   8.128921   16.061203   31.060247
F   9.307277   15.987272   30.359542
F   7.847107   17.390001   31.217246
C   7.020612   15.410179   30.178099
F   5.818833   15.443438   30.879164
H   7.287510   14.357069   29.994928
C   6.808875   16.089239   28.793426
F   8.014458   16.014979   28.138152
F   6.519601   17.433894   28.964362
C   5.708082   15.481581   27.965718
H   4.837974   15.102926   28.496485
C   5.708082   15.481581   26.625902
F   6.443371   16.386722   25.946659
C   4.931130   14.547698   25.732793
H   4.659674   13.654385   26.308265
H   3.983459   15.004739   25.413484
C   5.709638   14.111569   24.481599
F   6.125062   15.200581   23.762791
F   6.849495   13.450925   24.886289
C   4.915363   13.139741   23.555591
H   4.791299   12.183442   24.087635
F   3.623511   13.636699   23.343218
C   5.581470   12.855940   22.168739
F   5.811382   14.029043   21.504884
F   6.822340   12.312069   22.415382
C   4.720301   11.903891   21.311887
H   4.606320   10.957216   21.856154
H   3.718198   12.344075   21.223521
C   5.284883   11.605319   19.907930
F   5.506964   12.791650   19.238670
F   6.521197   11.019206   20.051161
C   4.381282   10.698476   19.038229
H   4.218690   9.738785   19.544233
H   3.396756   11.174339   18.929365
C   4.959555   10.412545   17.636641
F   5.182094   11.587122   16.960162
F   6.171264   9.792444   17.763733
C   4.027590   9.538426   16.737205
F   3.753567   8.351704   17.416774
H   3.077105   10.073937   16.587378
C   4.622100   9.177294   15.335254
F   4.854271   10.361240   14.679805
F   5.838130   8.574336   15.501393
C   3.703021   8.268160   14.491976
H   3.537487   7.339747   15.053542
H   2.725421   8.756861   14.382495
C   4.274804   7.942530   13.091352
F   4.514568   9.119185   12.413308
F   5.510495   7.351051   13.236698
C   3.379059   7.025699   12.223899
H   3.236840   6.067057   12.740397
H   2.385026   7.473321   12.094450
C   3.970826   6.739847   10.828266
F   4.191378   7.911380   10.156733
F   5.191248   6.125744   10.961296
C   3.075588   5.803903   9.951686
H   2.939360   4.849868   10.483231
F   1.820784   6.397196   9.806446
C   3.652359   5.504828   8.532568
F   3.873530   6.687036   7.880897
F   4.874853   4.908603   8.713501
C   2.755092   4.595339   7.680268
H   2.608252   3.646534   8.213887
H   1.770683   5.069994   7.588776
C   3.324780   4.292710   6.279465
F   3.553300   5.469470   5.602829
F   4.549578   3.680311   6.413303
C   2.424170   3.399676   5.425247
H   2.237563   2.457384   5.954028
H   1.450110   3.890524   5.297943
C   2.964131   3.051236   4.025827
F   3.188566   4.181732   3.272638
F   4.167423   2.403734   4.090083
C   1.936109   2.185661   3.257265
F   1.651954   1.042777   4.018005
H   1.000000   2.759183   3.165303
C   2.334578   1.704045   1.849079
F   2.500709   2.767270   1.000000
F   3.501278   1.000000   1.860590
H   1.534231   1.055920   1.452028
