568

F          5.48600       10.46300        5.28800
F          5.37500        8.42500        4.31800
C          5.82800        8.83800       33.73800
H          5.37700        9.42600       32.96400
H          5.20900        8.05300       33.88000
C          5.89100        9.57700       35.10000
C          4.49400       10.17800       35.42600
F          4.13900       11.25900       34.44100
H          3.72700        9.44200       35.28700
C          4.44900       10.69600       36.90400
F          3.44700       11.67000       37.01300
F          4.08900        9.64200       37.73500
C          5.79600       11.27900       37.41000
C          5.90500       11.75300       38.88900
C          5.36800       10.75000       39.96900
H          4.33600       10.54800       39.76700
H          5.88200        9.82600       39.85100
C          5.49900       11.17400       41.45200
C          4.83100       10.09600       42.37800
H          3.97300        9.73400       41.85400
F          5.65100        8.84100       42.44600
C          4.28900       10.47600       43.79500
F          3.28600       11.44600       43.67100
F          3.70300        9.33300       44.35800
C          5.38400       11.00600       44.74900
H          5.83200       11.84200       44.24700
C          4.87700       11.39100       46.17600
F          3.54000       10.99100       46.34900
C          5.73700       10.76900       47.32100
H          5.89300        9.73200       47.11300
C          5.09200       10.85700       48.71300
F          4.28500        9.73100       48.88500
C          5.70600       10.44000       51.31000
F          5.75700        9.03700       51.35700
C          4.29700       10.91900       51.67200
H          3.65300       10.57100       50.88600
C          3.70300       10.48700       53.05400
F          2.82700       11.46200       53.53900
F          2.96700        9.31700       52.87400
C          4.82700       10.25500       54.14100
H          5.59000        9.65800       53.69500
H          5.25000       11.20700       54.39600
C          4.29600        9.53800       55.36500
F          3.55500        8.41700       55.23100
C          4.60900       10.02700       56.56800
H          5.27400       10.84800       56.63200
C          3.99500        9.44800       57.79900
F          2.63700        9.81400       57.84000
F          4.08700        8.07900       57.68700
C          4.62800        9.80700       59.22200
H          4.10200        9.22800       59.93700
H          5.61900        9.40900       59.21300
C          4.60500       11.25000       59.78600
F          3.29100       11.71500       59.86400
C          5.22400       11.41000       61.21800
C          4.30400       11.16800       62.44200
F          3.51300       10.04200       62.20900
C          5.15000       10.97700       63.75400
H          5.68100       11.87200       63.99900
C          4.32700       10.54000       65.01700
F          3.32900       11.49300       65.25000
F          3.68200        9.33400       64.73400
C          5.15500       10.36400       66.32100
H          5.92600        9.67100       66.13300
H          5.63600       11.28400       66.55500
C          4.36100        9.89500       67.58000
F          3.44600       10.88600       67.94400
F          3.62400        8.75700       67.24800
C          5.24800        9.54700       68.82500
H          4.64100        8.92100       69.45700
C          5.85500       10.67000       69.68400
F          5.86900       11.87900       68.95100
C          5.06400       10.90200       71.03200
H          5.48500       11.77000       71.50800
F          3.68900       11.30700       70.74700
C          5.11700        9.70800       72.09100
F          4.11000        8.76100       71.83700
C          4.95400       10.26400       73.50500
H          5.57500       11.13800       73.58800
H          3.94100       10.57700       73.63800
C          5.37000        9.24500       74.63200
F          5.17700        7.96400       74.19500
C          4.62100        9.42800       75.97900
H          3.58700        9.57200       75.73100
H          4.69400        8.48500       76.47800
C          4.97300       10.47100       77.06500
F          4.96300       11.74000       76.48000
F          3.93900       10.44500       78.00200
C          5.71400        9.92400       80.35500
H          5.07600       10.53600       80.95000
H          5.04700        9.24800       79.86500
F          5.67200        6.25000      130.10800
F          5.25000       12.97500       39.03500
F          4.87300       12.40200       41.65400
F          4.91500       12.77300       46.30200
F          4.25200       11.99000       48.77800
H          4.34700       11.99000       51.64600
F          5.29000       12.07400       58.89500
H          5.54800       12.41300       61.33500
F          3.43600       12.25600       62.60500
F          5.74900       12.05900       79.29300
F          8.23800        5.31900       10.63900
H          9.12100        5.92000       12.87700
F          9.72800        5.50700      125.29700
F          6.39100        5.89500      127.12300
F          8.34300        4.95600      127.78100
F          7.59000        5.15000      130.46000
F          8.42000        5.69800      132.95900
C          8.76700       10.61100        0.93100
F          9.81600       10.37800      211.94300
F          9.04600       11.80400        1.61000
C          8.79400        9.42500        1.98500
H          9.07700        8.55100        1.41600
H          9.58000        9.64400        2.70800
C          7.56100        9.02500        2.76400
F          7.00500        7.87200        2.54200
C          7.16500        9.84800        3.75400
H          7.59700       10.81600        3.76800
C          6.23700        9.37700        4.84600
C          6.94400        8.71500        6.12200
H          6.95200        9.43400        6.91300
H          6.39500        7.91100        6.41100
C          8.39300        8.27100        5.89900
F          8.45700        7.22600        5.00200
F          9.02200        9.33100        5.27300
C          9.30000        7.91300        7.18300
H          9.92600        7.06500        6.96000
H          9.92400        8.68300        7.40100
C          8.51400        7.57400        8.44900
F          7.76100        8.67800        8.89800
F          7.57400        6.58500        8.14500
C          9.51400        7.06700        9.57600
F         10.43000        6.01000        9.05300
H         10.13700        7.88800        9.85100
C          8.76700        6.59300       10.85700
F          7.69900        7.46200       11.11100
C          9.64000        6.49900       12.14400
H         10.55900        6.00300       11.89200
C          9.93900        7.81000       12.89500
F         11.05700        7.59400       13.69700
F         10.20900        8.76100       11.96700
C          8.65000        8.25600       13.77600
H          7.96100        8.72000       13.10200
H          8.16500        7.46100       14.19500
C          8.93600        9.24800       14.89900
F          9.87000       10.19300       14.44000
F          7.74100        9.94000       15.14900
C          9.45200        8.56500       16.24700
H          8.97900        7.67100       16.36800
F         10.85800        8.22700       16.17000
C          9.17300        9.47400       17.52100
F          9.29800       10.83100       17.19000
F          7.85400        9.27100       17.95600
C         10.13900        9.17400       18.67600
H         10.13800        8.12000       18.85700
H         11.12900        9.48700       18.37900
C          9.84600        9.80600       20.07300
F         10.98200       10.47700       20.52500
F          8.80300       10.72400       19.97100
C          9.47700        8.67300       21.08800
H          8.58200        8.17800       20.77600
H         10.31500        7.96900       21.06500
C          9.24800        9.15000       22.52500
F         10.39500        9.78500       23.01700
F          8.19100       10.07700       22.57300
C          8.95100        7.84600       23.32000
F          7.52900        7.52400       23.19800
H          9.43300        7.03900       22.81600
C          9.44500        7.69700       24.81300
F          9.26700        6.36600       25.24800
F         10.82000        7.98500       24.90800
C          8.61800        8.64600       25.70700
H          9.33900        9.39000       25.93900
H          7.87600        9.14500       25.11800
C          7.94300        8.22600       27.05700
F          7.04000        7.25900       26.81200
F          8.95600        7.73900       27.92000
C          7.25400        9.44500       27.74300
H          6.71400       10.00100       27.00800
H          6.53700        9.05500       28.42200
C          8.17700       10.40300       28.54400
F          9.29200       10.73100       27.76800
F          7.49900       11.59300       28.80500
C          8.67000        9.81000       29.91300
H          9.13500        8.88200       29.66600
F          9.65700       10.73800       30.56900
C          7.46400        9.51800       30.88100
F          6.57400       10.58800       30.86700
F          6.77300        8.38500       30.44600
C          7.96300        9.31100       32.32800
H          8.98400        9.01000       32.25200
H          7.98900       10.27000       32.82000
C          7.20300        8.31900       33.27200
F          7.08900        7.10400       32.65100
F          8.00800        8.10400       34.38200
F          6.26600        8.66700       36.10100
F          6.81300       10.61500       35.05300
H          6.51400       10.49800       37.42300
F          6.83800       11.32600       41.76700
H          6.14500       10.28600       44.86500
H          6.66800       11.25500       47.35500
C          6.15800       10.94400       49.86800
F          7.41400       10.32100       49.47400
F          6.55900       10.91900       52.28800
H          6.07800       10.79700       61.26000
F          6.31000       10.09300       63.50200
H          6.04400        8.94300       68.47900
F          7.17500       10.34400       69.95800
F          6.32300        9.03800       72.01800
F          6.72100        9.36200       74.84800
C          6.33100       10.25300       77.81600
F          6.77000        8.82700       77.78100
H          7.07600       10.76900       77.24500
C          6.36500       10.81700       79.27700
F          7.70100       11.04300       79.64000
C          6.66000        9.16500       81.31900
F          6.03300        8.11500       81.88400
F          7.73900        8.65200       80.58500
C          7.19300       10.07500       82.47500
H          7.30500       11.07300       82.09500
H          6.41800       10.13200       83.21400
C          8.48800        9.62800       83.17700
F          8.38900        8.26100       83.49300
F          9.55100        9.75400       82.27500
C          8.82400       10.48400       84.48900
H          9.34900       11.33000       84.11200
F          7.62300       11.08700       85.06500
C          9.72300        9.83100       85.61900
F          9.06800        8.69900       86.12400
F         10.91700        9.38200       85.04700
C         10.08000       10.73200       86.81800
H         10.45300       11.67000       86.46300
H          9.16700       10.95500       87.31400
C         10.98700       10.23400       88.00000
F         10.30000        9.26100       88.72900
C         11.38200       11.40700       88.95400
C         10.87000       11.31100       90.40500
F          9.46600       11.30100       90.40900
F         11.30800       10.11600       90.98000
C         10.60400       11.21100       93.34700
H          9.87600       11.00600       92.58900
H         11.04600       10.28500       93.63000
C          9.88100       11.80400       94.57600
F          8.84000       10.94800       94.95600
H         11.03100       11.10600       96.26800
F         11.28400       10.78300      103.10200
H          9.33400       11.33800      104.73100
F         11.68600       10.66100      105.74800
C          9.28500       11.01400      107.68400
F          8.20000       11.18800      106.83900
F          9.72800        9.70000      107.53700
C          8.83000       11.26300      109.20200
H          8.08800       10.56200      109.48600
C         10.01900       11.14700      110.11500
C         10.12900       10.03900      110.87200
H          9.47400        9.22100      110.75700
C         11.16700        9.93000      111.92000
F         11.25200       11.14500      112.62600
C         10.81600        8.75500      112.95600
H          9.86800        8.94700      113.40900
H         10.79700        7.86200      112.42600
C         11.85000        8.63700      114.06600
C         11.17800        8.41900      115.47000
H         10.83000        9.37200      115.78800
H         10.36400        7.82800      115.37800
C         11.46900        7.64400      117.96800
F         10.53700        6.48100      117.93300
C         10.75400        8.90300      118.57300
F         11.68800        9.92500      118.62900
F          9.71200        9.34400      117.73800
C         10.23000        8.65000      120.00200
H          9.64300        9.48600      120.33100
H          9.64300        7.82800      119.97700
C         11.35400        8.40400      121.07500
F         11.87300        7.12900      121.00700
C         10.75500        8.66400      122.48600
H         11.52500        8.67300      123.23200
H         10.35000        9.65000      122.45000
C          9.68200        7.72600      122.91500
F          8.50500        8.05500      122.22600
F         10.01100        6.40800      122.56200
C          9.48400        7.84100      124.46900
H         10.45500        7.95700      124.90600
F          8.67800        9.01000      124.80000
C          8.82000        6.55400      125.17400
F          7.68700        6.09200      124.46700
C          8.43800        7.05500      126.56300
H          9.35000        7.45700      127.01100
H          7.78200        7.87300      126.35100
C          7.67700        6.16800      127.60000
C          7.61800        6.97900      128.95200
H          8.62800        7.27300      129.14600
H          7.11300        7.89600      128.75300
C          7.04600        6.41500      130.24700
C          7.40900        7.37500      131.50600
F          8.74100        7.95400      131.33600
H          6.69700        8.18800      131.54300
C          7.36100        6.64200      132.88100
F          6.15200        5.95600      133.06400
C          7.52000        7.71200      133.98000
H          8.34200        8.25900      133.75000
H          6.61200        8.34100      133.98500
C          7.73900        7.08500      135.39200
F          6.73300        6.14000      135.62500
F          8.93200        6.38900      135.37800
C          7.76800        8.09800      136.58200
H          6.90200        8.75400      136.45300
H          7.59100        7.46100      137.42600
C          8.90700        8.96300      137.02300
F          9.34700        9.72400      135.93300
F          8.45800        9.84000      138.02200
C         10.11700        8.13500      137.58700
H          9.65400        7.27400      138.00600
F         10.96000        7.57500      136.47600
C         10.97800        8.79500      138.69600
F         11.44100        9.99900      138.16400
C         10.41800        9.13200      140.09300
H         11.18300        9.70100      140.58900
H          9.59700        9.77500      139.87700
C         10.05400        8.10200      141.15500
F          9.13100        7.25000      140.56800
F         11.17800        7.33600      141.46500
C          9.42000        8.62500      142.51800
H          8.79900        7.93200      142.94600
H         10.25700        8.71400      143.17800
C          8.75600       10.00100      142.58400
F          9.75400       10.97200      142.48800
F          7.92500       10.14600      141.47100
C          7.91700       10.25900      143.91900
F          7.11200       11.51100      143.81100
H          7.20300        9.47200      144.00200
C          8.81000       10.27300      145.19500
F          9.95400        9.51300      144.97100
F          9.23600       11.58600      145.44300
C          8.13100        9.69400      146.47200
H          7.62900        8.80500      146.16800
H          8.88200        9.36500      147.14800
C          7.16300       10.62100      147.25700
F          6.24600       11.15900      146.36200
F          6.43400        9.85800      148.17200
C          7.87500       11.79400      148.03200
C          8.81300       11.36700      149.16600
F          8.08100       10.59300      150.07800
F          9.78300       10.53500      148.61600
F         11.15700       11.06600      151.04700
H          9.04000       11.07300      152.43100
F         11.05100       11.42400      154.16100
H          8.13400       11.49900      154.47400
H          9.28000       11.68600      155.80900
C          8.37900       11.85500      175.03500
F          7.05600       11.41500      175.16000
F          9.04900       10.91000      174.22600
C          9.06400       11.87300      176.46900
H          8.57700       11.11300      177.05400
F         10.44700       11.38800      176.39800
F          7.08200       11.29200      207.71400
F          9.30500       11.51800      208.00900
C          7.37000       10.83900      210.45700
F          6.03500       10.65500      210.09400
F          8.07300        9.77500      209.91400
C          7.46400       10.75800      212.00400
H          7.00500       11.66500      212.32500
H          6.84700        9.93600      212.30900
H          6.12800       12.04100       36.72600
F          7.23700       11.97500       39.12600
H          6.41400       11.97200       49.94200
H         11.03100       12.35300       88.57600
C         11.37800       12.53300       91.26000
H         10.54900       13.19700       91.26000
C         11.69200       12.14200       92.74500
F         11.81600       13.32400       93.49900
F          9.30900       12.99900       94.16200
C         10.81500       12.05100       95.81500
H         11.75800       12.43500       95.49400
C         10.16400       12.96800       96.86500
F          9.93600       14.21100       96.31300
F          8.89400       12.46300       97.13000
C         10.95800       13.08900       98.24900
H         10.68700       12.25800       98.85700
C         10.71100       14.30400       99.14800
F         11.73000       15.24400       98.90900
F          9.48100       14.92500       98.88900
C         10.77400       13.90000      100.64400
H         10.45200       14.73900      101.20000
H          9.99900       13.17400      100.75900
C         11.75000       13.10100      102.89100
H         11.47300       14.03400      103.32500
C         10.69500       12.04300      103.27700
F          9.63400       12.11800      102.37800
C         10.07100       12.11600      104.72400
F          9.24600       13.35000      104.93300
C         11.07000       11.90500      105.89700
C         10.40800       12.00200      107.30900
H         11.18600       11.90300      108.02800
H         10.03800       12.99900      107.45500
H          8.39000       12.24300      109.29000
F         10.98800       12.08300      110.09500
H          8.40700       12.40200      147.32800
H          7.10000       12.39400      148.44700
C          9.52900       12.56500      149.94700
H         10.24800       12.99000      149.28400
F          8.56900       13.62900      150.23300
C         10.38400       12.23000      151.23900
F         11.28200       13.28400      151.49400
C          9.45300       12.05600      152.44800
H          8.60600       12.69700      152.32000
C         10.02800       12.32600      153.87800
F         10.55900       13.62200      153.95700
C          8.87400       12.14400      154.92100
C          8.14900       13.40700      155.37400
F          7.67000       14.09300      154.24100
F          7.00100       13.02100      156.07100
C          9.03100       14.32000      156.29700
F         10.32300       13.70100      156.70500
H          9.29300       15.12900      155.66200
C          8.31700       14.94800      157.54300
F          9.11800       15.95800      158.11200
F          7.09700       15.52900      157.14900
C          8.14200       13.87300      158.59300
H          7.84900       12.99800      158.05800
H          9.10200       13.63600      159.01600
C          7.07100       14.03600      159.75800
F          6.44100       15.26900      159.66300
F          6.13300       13.08400      159.65700
C          7.80300       13.95600      161.17000
H          7.04400       13.67600      161.87900
H          8.48500       13.13000      161.11400
C          8.49800       15.12300      161.74200
F          8.83600       16.23800      161.03200
C          8.76200       14.95400      163.04400
H          8.41300       14.09000      163.54100
C          9.57200       15.91600      163.83900
F         10.82300       16.06700      163.20800
F          8.92500       17.15900      163.82400
C          9.85300       15.49900      165.36400
H         10.20500       14.49800      165.31900
H         10.66000       16.10000      165.74600
C          8.69100       15.53600      166.37300
F          8.35900       16.86100      166.67800
F          7.56400       14.93000      165.81100
C          9.10000       14.76500      167.68800
H          8.98700       13.75600      167.50700
H         10.15300       14.84700      167.83200
C          8.47200       15.04800      169.06000
F          9.05100       16.17600      169.65600
F          7.08500       15.24800      168.96200
C          8.85100       13.74200      169.82300
F          7.77600       12.73100      169.55700
H          9.74900       13.31300      169.40500
C          9.10300       13.91700      171.36000
F          9.53700       12.70200      171.91300
F         10.07100       14.81300      171.57800
C          7.76500       14.37600      172.07100
H          7.99500       15.34800      172.45000
H          6.99000       14.50000      171.34000
C          7.26400       13.54500      173.23800
F          6.17900       14.21500      173.86000
F          6.71700       12.37200      172.71400
C          8.37300       13.20600      174.30400
H          9.31800       13.25800      173.82600
H          8.37100       14.00800      175.00900
C          9.00000       13.23500      177.27800
F          9.97300       14.08500      176.88900
F          7.76100       13.89000      177.12100
C          9.19500       12.81800      178.73800
H          8.30900       12.28800      179.03800
H         10.02800       12.13000      178.79400
C          9.40200       13.99900      179.74100
F         10.63500       14.50500      179.62300
F          8.43200       14.98700      179.47700
C          9.18800       13.41600      181.18000
H          8.18500       13.04900      181.27600
H          9.84700       12.58500      181.32800
C          9.38200       14.38200      182.31300
F         10.68200       14.89700      182.20000
F          8.49500       15.45100      182.17200
C          9.23300       13.69900      183.72100
F          8.07300       12.82300      183.71500
H         10.03900       13.01100      183.88100
C          9.13200       14.65700      184.96400
F          8.13900       15.64300      184.78800
F          8.84600       13.95900      186.11200
C         10.47200       15.35700      185.18900
H         11.26800       14.64500      185.07300
H         10.53200       16.08100      184.40500
C         10.64000       16.08300      186.57800
F         11.18600       17.35500      186.38900
F          9.38700       16.24600      187.16600
C         11.55500       15.25700      187.52700
H         11.18800       14.26100      187.44000
C         11.62500       15.55100      189.04800
F         10.87700       16.68700      189.36100
C         11.09100       14.33200      189.87800
H         10.24900       13.99300      189.41700
C         10.77000       14.67300      191.36700
F          9.70800       15.58400      191.45300
F         10.41500       13.53300      192.02600
H         11.84900       16.31400      192.20800
C         11.61400       15.00100      194.50500
H         10.70300       14.51200      194.24900
C         11.31500       16.46100      194.94600
F         10.58900       17.12900      193.95300
C         10.50100       16.49100      196.29600
F          9.49100       17.59700      196.31600
H          9.90000       15.60900      196.31300
C         11.31700       16.44700      197.62500
C         10.38300       16.51500      198.87100
H         10.98000       16.97700      199.61600
H          9.57500       17.20400      198.67900
C          9.77400       15.25800      199.54100
F          8.87200       14.65300      198.67000
F         10.77900       14.32600      199.82000
C          9.04300       15.68800      200.87800
H          8.16200       16.23800      200.61000
H          8.69500       14.84600      201.43500
C          9.84500       16.55900      201.84700
F         11.21100       16.22200      201.80300
C          9.26300       16.39300      203.30400
H          9.82500       17.07600      203.90100
F          7.88800       16.86600      203.32300
C          9.38900       14.99400      204.08500
F          9.10500       13.97400      203.22700
F         10.73000       14.80200      204.46500
C          8.51400       14.89300      205.33100
H          8.64600       15.78100      205.90700
H          7.48200       14.88700      205.02000
C          8.85500       13.67600      206.28400
F          8.74400       12.51100      205.52700
F         10.17300       13.75600      206.74100
C          7.95300       13.52500      207.51600
H          8.09700       14.31800      208.17900
H          6.94200       13.65100      207.18300
C          8.05700       12.12500      208.25900
C          7.85300       12.19200      209.78900
F          9.08300       12.72100      210.48100
H          7.03600       12.87200      209.92700
F         12.12600        9.63300       87.50600
H         12.43200       11.44500       89.02500
F         12.89800       11.47800       92.80900
F         12.39400        9.67700      111.31400
F         12.75300        7.60900      113.76600
F         12.63300        9.79900      114.11700
C         12.12900        7.90100      116.58400
F         12.69900        6.70400      116.15100
F         13.12100        8.77400      116.77500
H         12.22600        7.29900      118.61700
F         12.42500        9.26300      120.85900
F         12.12300        8.02100      138.88600
F         12.51200       13.24700       90.62600
F         12.38300       12.75700       98.09800
C         11.99600       13.29700      101.34700
F         12.30800       12.06400      100.77600
F         13.03400       14.11700      101.14200
H         12.64200       12.78900      103.35300
F         12.05000       12.87300      105.82300
H         12.54900       15.26200      187.14600
F         12.93900       15.81500      189.38300
F         12.05900       13.18900      189.79500
C         12.02300       15.27900      192.02400
H         12.80700       15.28900      191.30700
C         12.58400       14.67000      193.35100
F         12.78100       13.30700      193.24700
F         13.84500       15.20100      193.64300
H         11.96500       14.49400      195.36200
F         12.49500       17.14600      195.10500
F         12.06200       15.28200      197.66000
F         12.19100       17.52300      197.68600
F          9.74000       17.90000      201.43200
