88

Pb   4.22751557226   8.11353336089   14.0808673336
Pb 0.0641947942954   8.11362234620   27.4094242033
Pb   4.09187865379   4.02184549152   27.4088900419
Pb   8.25519405213   4.02183148387   14.0807483456
N   3.53073146958   3.49864691287   11.3741242490
N   7.69164445417   3.49856713156   2.45585243353
N   4.79123330259   7.59033145075   2.45599330293
N  0.630090801465   7.59056237196   11.3743470614
H   3.66731733070   2.48679326600   11.1274417876
H   7.82816184040   2.48668852382   2.70269861840
H   4.65455499149   6.57850298442   2.70265035292
H  0.493563721908   6.57854998381   11.1278411065
H   3.64929088129   3.57338486340   12.3946608362
H   7.81018166865   3.57328084998   1.43528502458
H   4.67284074920   7.66500307402   1.43541014141
H  0.511556366833   7.66547670088   12.3948568251
H   2.53098672043   3.74922003475   11.1677095423
H   6.69195862688   3.74919235393   2.66229839983
H   5.79071582978   7.84128204639   2.66274732712
H   1.62962687492   7.84140238874   11.1677795761
H   4.30745457860   5.41884325710   11.0380817532
H  0.146775242611   5.41860251534   2.79161558993
H   4.01419312477   1.32650350907   2.79147770449
H   8.17530295616   1.32667914278   11.0380406277
H   5.50470095506   4.09893936428   10.9765540618
H   1.34373131424   4.09859110332   2.85381983597
H   2.81714716726 0.00653270069609   2.85366972053
H   6.97803772109 0.00697774590905   10.9767406344
H   3.25982222151   4.58032830516   8.92658847277
H   7.42052298075   4.58209460617   4.90287687051
H   5.06208547607  0.490251291205   4.90290545690
H  0.900712726338  0.488287223310   8.92667610806
H   4.42234625994   3.25216554235   8.85286164799
H  0.259485745216   3.25240660272   4.97727016928
H   3.90113079173   7.34405951725   4.97723937150
H   8.06022310662   7.34373500259   8.85302227487
H   5.10174680870   6.23739338107   8.71391562078
H  0.942467461374   6.23699150707   5.11653319834
H   3.21773362924   2.14474412459   5.11578547773
H   7.37908153220   2.14515924195   8.71508635265
H   6.29123906048   4.93947360954   8.67015309475
H   2.13066713761   4.93570561276   5.16026870706
H   2.02972339247  0.844770558472   5.16038034565
H   6.19139554352  0.845157326914   8.66908073330
H   5.64833303477   5.81564968532   6.34446745057
H   1.48920235673   5.81264784700   7.48622101723
H   2.67398382363   1.72209165896   7.48549445213
H   6.83626774652   1.72354906996   6.34445046336
H   5.36445491231   4.07832005911   6.52877990531
H   1.20209484480   4.07582773348   7.30016111213
H   2.95799117543   8.16995443133   7.30171668761
H   7.11570318144   8.17152331280   6.52813605488
H   4.01214823755   5.21032490552   6.60908498494
H   8.17182742762   5.20909090129   7.22043913378
H   4.31293654468   1.11462946433   7.21802404676
H  0.152553744662   1.10976799904   6.61237041835
C   4.48849479906   4.39428914438   10.6737426683
C  0.327365051816   4.39420274378   3.15626428861
C   3.83350047628  0.302103561522   3.15619211435
C   7.99432108477  0.302140645899   10.6738417855
C   4.29557655876   4.29851901633   9.17324127853
C  0.134016734669   4.29882033073   4.65663051206
C   4.02666763525  0.206744339104   4.65654296308
C   8.18700069189  0.206169144285   9.17343663550
C   5.25674669908   5.19553759297   8.39823275264
C   1.09635031379   5.19446849635   5.43184401140
C   3.06453905612   1.10260199402   5.43176430285
C   7.22581132121   1.10304406788   8.39825809406
C   5.06178629300   5.06863345039   6.89186711532
C  0.901075023074   5.06707632523   6.93819206827
C   3.26099549772  0.975901279920   6.93781068235
C   7.42174624918  0.976551579889   6.89208626326
Br   2.55290094080   5.71490106667   13.8311800333
Br   5.82215766107   2.47628612660   13.6404992477
Br   1.66111281987   2.47625155287  0.189643307844
Br   6.71412863349   5.71484434218   27.6588604777
Br   5.76931487636   1.62290419969   27.6588135258
Br   2.49984753989   6.56825462636  0.189325901033
Br   6.66083825160   6.56823239753   13.6405401393
Br   1.60810926420   1.62290495198   13.8312105920
Br   3.90609304638  0.140399271269   10.9279609043
Br   4.31248322294   8.15549630635   16.6976880396
Br  0.151249007007   8.15566049402   24.7926554788
Br   8.06716207513  0.140306225886   2.90208565080
Br   4.41581091384   4.23232730235   2.90211427210
Br   4.00926110542   4.06347440322   24.7920041726
Br   8.17049090943   4.06370859839   16.6975943803
Br  0.254809896598   4.23238672713   10.9279045540
lattice vectors
   8.32199954990    0.00000000000    0.00000000000
   0.00000000000    8.18400001530    0.00000000000
   0.00000000000    0.00000000000    27.6599998474
