138

H   24.103638   14.194639   53.512372
C   23.322551   13.799741   52.855454
H   22.344245   13.910497   53.333713
H   23.503275   12.734238   52.681129
C   23.340915   14.558165   51.543233
F   24.606619   14.479362   50.973881
F   23.163269   15.908781   51.797976
C   22.274050   14.052928   50.560877
H   21.292240   14.133704   51.049744
H   22.448683   12.980066   50.403243
C   22.194882   14.739083   49.192330
F   23.414343   14.651755   48.551518
F   21.970373   16.085071   49.366387
C   21.080007   14.129310   48.315175
H   20.123196   14.232452   48.842837
H   21.264025   13.052315   48.203348
C   20.936614   14.756194   46.923506
F   22.141750   14.659753   46.258654
F   20.686657   16.100036   47.067645
C   19.820451   14.125676   46.063577
H   18.856073   14.240310   46.574178
H   20.002966   13.047012   45.961610
C   19.692752   14.747776   44.662254
F   20.882420   14.654747   43.981534
F   19.405054   16.078469   44.780984
C   18.608837   14.065871   43.772212
F   17.392862   14.106008   44.453060
H   18.885861   13.010419   43.626008
C   18.417063   14.736386   42.376874
F   19.621407   14.651340   41.722411
F   18.156226   16.067510   42.549520
C   17.298258   14.097124   41.530657
H   16.351004   14.200763   42.073950
H   17.494170   13.021889   41.422704
C   17.153421   14.730482   40.130052
F   18.358985   14.652278   39.468364
F   16.895083   16.074660   40.275477
C   16.047412   14.093016   39.258984
H   15.089158   14.179934   39.788362
H   16.252176   13.022402   39.133176
C   15.903526   14.734952   37.864233
F   17.087815   14.647683   37.185755
F   15.617375   16.071414   37.994258
C   14.765756   14.103646   36.997492
H   13.810762   14.223813   37.532046
F   15.016959   12.738865   36.866193
C   14.624294   14.720898   35.568415
F   15.827360   14.645585   34.923627
F   14.349695   16.057279   35.735139
C   13.527516   14.056113   34.707099
H   12.570240   14.119644   35.242347
H   13.760766   12.989497   34.592500
C   13.360434   14.702654   33.311395
F   14.559989   14.650257   32.638768
F   13.082983   16.045191   33.464193
C   12.266600   14.050613   32.435136
H   11.305021   14.074107   32.965251
H   12.522007   12.994226   32.276573
C   12.100416   14.731463   31.060247
F   13.278773   14.657532   30.359542
F   11.818603   16.060261   31.217246
C   10.992108   14.080439   30.178099
F   9.790329   14.113698   30.879164
H   11.259005   13.027329   29.994928
C   10.780370   14.759499   28.793426
F   11.985954   14.685239   28.138152
F   10.491096   16.104154   28.964362
C   9.679578   14.151841   27.965718
H   8.809470   13.773186   28.496485
C   9.679578   14.151841   26.625902
F   9.799682   15.311800   25.946659
C   9.568611   12.942097   25.732793
H   9.128892   12.118481   26.308265
H   10.561892   12.595170   25.413484
C   8.709733   13.184196   24.481599
F   9.186032   14.247994   23.762791
F   7.436587   13.523051   24.886289
C   8.584185   11.935373   23.555591
H   7.995706   11.171441   24.087635
F   9.849064   11.373297   23.343218
C   7.912499   12.205704   22.168739
F   8.579435   13.197785   21.504884
F   6.650496   12.698556   22.415382
C   7.848237   10.923565   21.311887
H   7.259433   10.173568   21.856154
H   8.868087   10.526228   21.223521
C   7.237894   11.111662   19.907930
F   7.919722   12.107560   19.238670
F   5.949244   11.571424   20.051161
C   7.235602   9.831486   19.038229
H   6.671967   9.037911   19.544233
H   8.268252   9.471806   18.929365
C   6.624517   10.038202   17.636641
F   7.297709   11.026113   16.960162
F   5.329232   10.456532   17.763733
C   6.665420   8.761108   16.737205
F   6.020045   7.728205   17.416774
H   7.716178   8.467677   16.587378
C   5.989680   8.926131   15.335254
F   6.662687   9.927477   14.679805
F   4.703461   9.359639   15.501393
C   5.996712   7.633389   14.491976
H   5.457275   6.859853   15.053542
H   7.033543   7.287685   14.382495
C   5.362145   7.807446   13.091352
F   6.024627   8.809005   12.413308
F   4.070140   8.262973   13.236698
C   5.347235   6.525761   12.223899
H   4.769937   5.747335   12.740397
H   6.366639   6.139390   12.094450
C   4.726664   6.742076   10.828266
F   5.399110   7.726429   10.156733
F   3.429459   7.170809   10.961296
C   4.697881   5.447235   9.951686
H   4.119604   4.676302   10.483231
F   6.004683   4.979476   9.806446
C   4.078564   5.643596   8.532568
F   4.758120   6.635934   7.880897
F   2.792535   6.086434   8.713501
C   4.069922   4.366026   7.680268
H   3.502847   3.591288   8.213887
H   5.101636   4.005575   7.588776
C   3.453101   4.554865   6.279465
F   4.123608   5.548548   5.602829
F   2.154006   4.987897   6.413303
C   3.458458   3.286567   5.425247
H   2.924107   2.488315   5.954028
H   4.494304   2.944885   5.297943
C   2.830264   3.421993   4.025827
F   3.470945   4.380075   3.272638
F   1.521554   3.814997   4.090083
C   2.945131   2.083017   3.257265
F   2.337917   1.073950   4.018005
H   4.012601   1.826630   3.165303
C   2.322816   2.024224   1.849079
F   2.957157   2.893510   1.000000
F   1.000000   2.351371   1.860590
H   2.430454   1.000000   1.452028
