1152
Lattice = " 243.474140  0.000000  0.000000 0.000000  7.733817  0.000000 0.000000  0.000000  4.223108"
C  0.000000  0.000000  4.155158
C  0.000000  3.866908  2.043596
C  1.268094  0.000000  0.744872
C  1.268094  3.866908  2.856418
F  1.268094  6.618709  1.622763
F  1.268094  2.751800  3.734309
F  1.268094  1.115108  1.622763
F  1.268094  4.982017  3.734309
H  0.000000  6.856655  3.520404
H  0.000000  2.989747  1.408837
H  0.000000  0.877162  3.520404
H  0.000000  4.744070  1.408837
C  2.536189  0.000000  4.155158
C  2.536189  3.866908  2.043596
C  3.804283  0.000000  0.744872
C  3.804283  3.866908  2.856418
F  3.804283  6.618709  1.622763
F  3.804283  2.751800  3.734309
F  3.804283  1.115108  1.622763
F  3.804283  4.982017  3.734309
H  2.536189  6.856655  3.520404
H  2.536189  2.989747  1.408837
H  2.536189  0.877162  3.520404
H  2.536189  4.744070  1.408837
C  5.072378  0.000000  4.155158
C  5.072378  3.866908  2.043596
C  6.340472  0.000000  0.744872
C  6.340472  3.866908  2.856418
F  6.340472  6.618709  1.622763
F  6.340472  2.751800  3.734309
F  6.340472  1.115108  1.622763
F  6.340472  4.982017  3.734309
H  5.072378  6.856655  3.520404
H  5.072378  2.989747  1.408837
H  5.072378  0.877162  3.520404
H  5.072378  4.744070  1.408837
C  7.608567  0.000000  4.155158
C  7.608567  3.866908  2.043596
C  8.876661  0.000000  0.744872
C  8.876661  3.866908  2.856418
F  8.876661  6.618709  1.622763
F  8.876661  2.751800  3.734309
F  8.876661  1.115108  1.622763
F  8.876661  4.982017  3.734309
H  7.608567  6.856655  3.520404
H  7.608567  2.989747  1.408837
H  7.608567  0.877162  3.520404
H  7.608567  4.744070  1.408837
C  10.144756  0.000000  4.155158
C  10.144756  3.866908  2.043596
C  11.412850  0.000000  0.744872
C  11.412850  3.866908  2.856418
F  11.412850  6.618709  1.622763
F  11.412850  2.751800  3.734309
F  11.412850  1.115108  1.622763
F  11.412850  4.982017  3.734309
H  10.144756  6.856655  3.520404
H  10.144756  2.989747  1.408837
H  10.144756  0.877162  3.520404
H  10.144756  4.744070  1.408837
C  12.680945  0.000000  4.155158
C  12.680945  3.866908  2.043596
C  13.949039  0.000000  0.744872
C  13.949039  3.866908  2.856418
F  13.949039  6.618709  1.622763
F  13.949039  2.751800  3.734309
F  13.949039  1.115108  1.622763
F  13.949039  4.982017  3.734309
H  12.680945  6.856655  3.520404
H  12.680945  2.989747  1.408837
H  12.680945  0.877162  3.520404
H  12.680945  4.744070  1.408837
C  15.217134  0.000000  4.155158
C  15.217134  3.866908  2.043596
C  16.485228  0.000000  0.744872
C  16.485228  3.866908  2.856418
F  16.485228  6.618709  1.622763
F  16.485228  2.751800  3.734309
F  16.485228  1.115108  1.622763
F  16.485228  4.982017  3.734309
H  15.217134  6.856655  3.520404
H  15.217134  2.989747  1.408837
H  15.217134  0.877162  3.520404
H  15.217134  4.744070  1.408837
C  17.753323  0.000000  4.155158
C  17.753323  3.866908  2.043596
C  19.021417  0.000000  0.744872
C  19.021417  3.866908  2.856418
F  19.021417  6.618709  1.622763
F  19.021417  2.751800  3.734309
F  19.021417  1.115108  1.622763
F  19.021417  4.982017  3.734309
H  17.753323  6.856655  3.520404
H  17.753323  2.989747  1.408837
H  17.753323  0.877162  3.520404
H  17.753323  4.744070  1.408837
C  20.289512  0.000000  4.155158
C  20.289512  3.866908  2.043596
C  21.557606  0.000000  0.744872
C  21.557606  3.866908  2.856418
F  21.557606  6.618709  1.622763
F  21.557606  2.751800  3.734309
F  21.557606  1.115108  1.622763
F  21.557606  4.982017  3.734309
H  20.289512  6.856655  3.520404
H  20.289512  2.989747  1.408837
H  20.289512  0.877162  3.520404
H  20.289512  4.744070  1.408837
C  22.825701  0.000000  4.155158
C  22.825701  3.866908  2.043596
C  24.093795  0.000000  0.744872
C  24.093795  3.866908  2.856418
F  24.093795  6.618709  1.622763
F  24.093795  2.751800  3.734309
F  24.093795  1.115108  1.622763
F  24.093795  4.982017  3.734309
H  22.825701  6.856655  3.520404
H  22.825701  2.989747  1.408837
H  22.825701  0.877162  3.520404
H  22.825701  4.744070  1.408837
C  25.361890  0.000000  4.155158
C  25.361890  3.866908  2.043596
C  26.629984  0.000000  0.744872
C  26.629984  3.866908  2.856418
F  26.629984  6.618709  1.622763
F  26.629984  2.751800  3.734309
F  26.629984  1.115108  1.622763
F  26.629984  4.982017  3.734309
H  25.361890  6.856655  3.520404
H  25.361890  2.989747  1.408837
H  25.361890  0.877162  3.520404
H  25.361890  4.744070  1.408837
C  27.898079  0.000000  4.155158
C  27.898079  3.866908  2.043596
C  29.166173  0.000000  0.744872
C  29.166173  3.866908  2.856418
F  29.166173  6.618709  1.622763
F  29.166173  2.751800  3.734309
F  29.166173  1.115108  1.622763
F  29.166173  4.982017  3.734309
H  27.898079  6.856655  3.520404
H  27.898079  2.989747  1.408837
H  27.898079  0.877162  3.520404
H  27.898079  4.744070  1.408837
C  30.434267  0.000000  4.155158
C  30.434267  3.866908  2.043596
C  31.702362  0.000000  0.744872
C  31.702362  3.866908  2.856418
F  31.702362  6.618709  1.622763
F  31.702362  2.751800  3.734309
F  31.702362  1.115108  1.622763
F  31.702362  4.982017  3.734309
H  30.434267  6.856655  3.520404
H  30.434267  2.989747  1.408837
H  30.434267  0.877162  3.520404
H  30.434267  4.744070  1.408837
C  32.970456  0.000000  4.155158
C  32.970456  3.866908  2.043596
C  34.238551  0.000000  0.744872
C  34.238551  3.866908  2.856418
F  34.238551  6.618709  1.622763
F  34.238551  2.751800  3.734309
F  34.238551  1.115108  1.622763
F  34.238551  4.982017  3.734309
H  32.970456  6.856655  3.520404
H  32.970456  2.989747  1.408837
H  32.970456  0.877162  3.520404
H  32.970456  4.744070  1.408837
C  35.506645  0.000000  4.155158
C  35.506645  3.866908  2.043596
C  36.774740  0.000000  0.744872
C  36.774740  3.866908  2.856418
F  36.774740  6.618709  1.622763
F  36.774740  2.751800  3.734309
F  36.774740  1.115108  1.622763
F  36.774740  4.982017  3.734309
H  35.506645  6.856655  3.520404
H  35.506645  2.989747  1.408837
H  35.506645  0.877162  3.520404
H  35.506645  4.744070  1.408837
C  38.042834  0.000000  4.155158
C  38.042834  3.866908  2.043596
C  39.310929  0.000000  0.744872
C  39.310929  3.866908  2.856418
F  39.310929  6.618709  1.622763
F  39.310929  2.751800  3.734309
F  39.310929  1.115108  1.622763
F  39.310929  4.982017  3.734309
H  38.042834  6.856655  3.520404
H  38.042834  2.989747  1.408837
H  38.042834  0.877162  3.520404
H  38.042834  4.744070  1.408837
C  40.579023  0.000000  4.155158
C  40.579023  3.866908  2.043596
C  41.847118  0.000000  0.744872
C  41.847118  3.866908  2.856418
F  41.847118  6.618709  1.622763
F  41.847118  2.751800  3.734309
F  41.847118  1.115108  1.622763
F  41.847118  4.982017  3.734309
H  40.579023  6.856655  3.520404
H  40.579023  2.989747  1.408837
H  40.579023  0.877162  3.520404
H  40.579023  4.744070  1.408837
C  43.115212  0.000000  4.155158
C  43.115212  3.866908  2.043596
C  44.383307  0.000000  0.744872
C  44.383307  3.866908  2.856418
F  44.383307  6.618709  1.622763
F  44.383307  2.751800  3.734309
F  44.383307  1.115108  1.622763
F  44.383307  4.982017  3.734309
H  43.115212  6.856655  3.520404
H  43.115212  2.989747  1.408837
H  43.115212  0.877162  3.520404
H  43.115212  4.744070  1.408837
C  45.651401  0.000000  4.155158
C  45.651401  3.866908  2.043596
C  46.919496  0.000000  0.744872
C  46.919496  3.866908  2.856418
F  46.919496  6.618709  1.622763
F  46.919496  2.751800  3.734309
F  46.919496  1.115108  1.622763
F  46.919496  4.982017  3.734309
H  45.651401  6.856655  3.520404
H  45.651401  2.989747  1.408837
H  45.651401  0.877162  3.520404
H  45.651401  4.744070  1.408837
C  48.187590  0.000000  4.155158
C  48.187590  3.866908  2.043596
C  49.455685  0.000000  0.744872
C  49.455685  3.866908  2.856418
F  49.455685  6.618709  1.622763
F  49.455685  2.751800  3.734309
F  49.455685  1.115108  1.622763
F  49.455685  4.982017  3.734309
H  48.187590  6.856655  3.520404
H  48.187590  2.989747  1.408837
H  48.187590  0.877162  3.520404
H  48.187590  4.744070  1.408837
C  50.723779  0.000000  4.155158
C  50.723779  3.866908  2.043596
C  51.991874  0.000000  0.744872
C  51.991874  3.866908  2.856418
F  51.991874  6.618709  1.622763
F  51.991874  2.751800  3.734309
F  51.991874  1.115108  1.622763
F  51.991874  4.982017  3.734309
H  50.723779  6.856655  3.520404
H  50.723779  2.989747  1.408837
H  50.723779  0.877162  3.520404
H  50.723779  4.744070  1.408837
C  53.259968  0.000000  4.155158
C  53.259968  3.866908  2.043596
C  54.528063  0.000000  0.744872
C  54.528063  3.866908  2.856418
F  54.528063  6.618709  1.622763
F  54.528063  2.751800  3.734309
F  54.528063  1.115108  1.622763
F  54.528063  4.982017  3.734309
H  53.259968  6.856655  3.520404
H  53.259968  2.989747  1.408837
H  53.259968  0.877162  3.520404
H  53.259968  4.744070  1.408837
C  55.796157  0.000000  4.155158
C  55.796157  3.866908  2.043596
C  57.064252  0.000000  0.744872
C  57.064252  3.866908  2.856418
F  57.064252  6.618709  1.622763
F  57.064252  2.751800  3.734309
F  57.064252  1.115108  1.622763
F  57.064252  4.982017  3.734309
H  55.796157  6.856655  3.520404
H  55.796157  2.989747  1.408837
H  55.796157  0.877162  3.520404
H  55.796157  4.744070  1.408837
C  58.332346  0.000000  4.155158
C  58.332346  3.866908  2.043596
C  59.600440  0.000000  0.744872
C  59.600440  3.866908  2.856418
F  59.600440  6.618709  1.622763
F  59.600440  2.751800  3.734309
F  59.600440  1.115108  1.622763
F  59.600440  4.982017  3.734309
H  58.332346  6.856655  3.520404
H  58.332346  2.989747  1.408837
H  58.332346  0.877162  3.520404
H  58.332346  4.744070  1.408837
C  60.868535  0.000000  4.155158
C  60.868535  3.866908  2.043596
C  62.136629  0.000000  0.744872
C  62.136629  3.866908  2.856418
F  62.136629  6.618709  1.622763
F  62.136629  2.751800  3.734309
F  62.136629  1.115108  1.622763
F  62.136629  4.982017  3.734309
H  60.868535  6.856655  3.520404
H  60.868535  2.989747  1.408837
H  60.868535  0.877162  3.520404
H  60.868535  4.744070  1.408837
C  63.404724  0.000000  4.155158
C  63.404724  3.866908  2.043596
C  64.672818  0.000000  0.744872
C  64.672818  3.866908  2.856418
F  64.672818  6.618709  1.622763
F  64.672818  2.751800  3.734309
F  64.672818  1.115108  1.622763
F  64.672818  4.982017  3.734309
H  63.404724  6.856655  3.520404
H  63.404724  2.989747  1.408837
H  63.404724  0.877162  3.520404
H  63.404724  4.744070  1.408837
C  65.940913  0.000000  4.155158
C  65.940913  3.866908  2.043596
C  67.209007  0.000000  0.744872
C  67.209007  3.866908  2.856418
F  67.209007  6.618709  1.622763
F  67.209007  2.751800  3.734309
F  67.209007  1.115108  1.622763
F  67.209007  4.982017  3.734309
H  65.940913  6.856655  3.520404
H  65.940913  2.989747  1.408837
H  65.940913  0.877162  3.520404
H  65.940913  4.744070  1.408837
C  68.477102  0.000000  4.155158
C  68.477102  3.866908  2.043596
C  69.745196  0.000000  0.744872
C  69.745196  3.866908  2.856418
F  69.745196  6.618709  1.622763
F  69.745196  2.751800  3.734309
F  69.745196  1.115108  1.622763
F  69.745196  4.982017  3.734309
H  68.477102  6.856655  3.520404
H  68.477102  2.989747  1.408837
H  68.477102  0.877162  3.520404
H  68.477102  4.744070  1.408837
C  71.013291  0.000000  4.155158
C  71.013291  3.866908  2.043596
C  72.281385  0.000000  0.744872
C  72.281385  3.866908  2.856418
F  72.281385  6.618709  1.622763
F  72.281385  2.751800  3.734309
F  72.281385  1.115108  1.622763
F  72.281385  4.982017  3.734309
H  71.013291  6.856655  3.520404
H  71.013291  2.989747  1.408837
H  71.013291  0.877162  3.520404
H  71.013291  4.744070  1.408837
C  73.549480  0.000000  4.155158
C  73.549480  3.866908  2.043596
C  74.817574  0.000000  0.744872
C  74.817574  3.866908  2.856418
F  74.817574  6.618709  1.622763
F  74.817574  2.751800  3.734309
F  74.817574  1.115108  1.622763
F  74.817574  4.982017  3.734309
H  73.549480  6.856655  3.520404
H  73.549480  2.989747  1.408837
H  73.549480  0.877162  3.520404
H  73.549480  4.744070  1.408837
C  76.085669  0.000000  4.155158
C  76.085669  3.866908  2.043596
C  77.353763  0.000000  0.744872
C  77.353763  3.866908  2.856418
F  77.353763  6.618709  1.622763
F  77.353763  2.751800  3.734309
F  77.353763  1.115108  1.622763
F  77.353763  4.982017  3.734309
H  76.085669  6.856655  3.520404
H  76.085669  2.989747  1.408837
H  76.085669  0.877162  3.520404
H  76.085669  4.744070  1.408837
C  78.621858  0.000000  4.155158
C  78.621858  3.866908  2.043596
C  79.889952  0.000000  0.744872
C  79.889952  3.866908  2.856418
F  79.889952  6.618709  1.622763
F  79.889952  2.751800  3.734309
F  79.889952  1.115108  1.622763
F  79.889952  4.982017  3.734309
H  78.621858  6.856655  3.520404
H  78.621858  2.989747  1.408837
H  78.621858  0.877162  3.520404
H  78.621858  4.744070  1.408837
C  81.158047  0.000000  4.155158
C  81.158047  3.866908  2.043596
C  82.426141  0.000000  0.744872
C  82.426141  3.866908  2.856418
F  82.426141  6.618709  1.622763
F  82.426141  2.751800  3.734309
F  82.426141  1.115108  1.622763
F  82.426141  4.982017  3.734309
H  81.158047  6.856655  3.520404
H  81.158047  2.989747  1.408837
H  81.158047  0.877162  3.520404
H  81.158047  4.744070  1.408837
C  83.694236  0.000000  4.155158
C  83.694236  3.866908  2.043596
C  84.962330  0.000000  0.744872
C  84.962330  3.866908  2.856418
F  84.962330  6.618709  1.622763
F  84.962330  2.751800  3.734309
F  84.962330  1.115108  1.622763
F  84.962330  4.982017  3.734309
H  83.694236  6.856655  3.520404
H  83.694236  2.989747  1.408837
H  83.694236  0.877162  3.520404
H  83.694236  4.744070  1.408837
C  86.230425  0.000000  4.155158
C  86.230425  3.866908  2.043596
C  87.498519  0.000000  0.744872
C  87.498519  3.866908  2.856418
F  87.498519  6.618709  1.622763
F  87.498519  2.751800  3.734309
F  87.498519  1.115108  1.622763
F  87.498519  4.982017  3.734309
H  86.230425  6.856655  3.520404
H  86.230425  2.989747  1.408837
H  86.230425  0.877162  3.520404
H  86.230425  4.744070  1.408837
C  88.766613  0.000000  4.155158
C  88.766613  3.866908  2.043596
C  90.034708  0.000000  0.744872
C  90.034708  3.866908  2.856418
F  90.034708  6.618709  1.622763
F  90.034708  2.751800  3.734309
F  90.034708  1.115108  1.622763
F  90.034708  4.982017  3.734309
H  88.766613  6.856655  3.520404
H  88.766613  2.989747  1.408837
H  88.766613  0.877162  3.520404
H  88.766613  4.744070  1.408837
C  91.302802  0.000000  4.155158
C  91.302802  3.866908  2.043596
C  92.570897  0.000000  0.744872
C  92.570897  3.866908  2.856418
F  92.570897  6.618709  1.622763
F  92.570897  2.751800  3.734309
F  92.570897  1.115108  1.622763
F  92.570897  4.982017  3.734309
H  91.302802  6.856655  3.520404
H  91.302802  2.989747  1.408837
H  91.302802  0.877162  3.520404
H  91.302802  4.744070  1.408837
C  93.838991  0.000000  4.155158
C  93.838991  3.866908  2.043596
C  95.107086  0.000000  0.744872
C  95.107086  3.866908  2.856418
F  95.107086  6.618709  1.622763
F  95.107086  2.751800  3.734309
F  95.107086  1.115108  1.622763
F  95.107086  4.982017  3.734309
H  93.838991  6.856655  3.520404
H  93.838991  2.989747  1.408837
H  93.838991  0.877162  3.520404
H  93.838991  4.744070  1.408837
C  96.375180  0.000000  4.155158
C  96.375180  3.866908  2.043596
C  97.643275  0.000000  0.744872
C  97.643275  3.866908  2.856418
F  97.643275  6.618709  1.622763
F  97.643275  2.751800  3.734309
F  97.643275  1.115108  1.622763
F  97.643275  4.982017  3.734309
H  96.375180  6.856655  3.520404
H  96.375180  2.989747  1.408837
H  96.375180  0.877162  3.520404
H  96.375180  4.744070  1.408837
C  98.911369  0.000000  4.155158
C  98.911369  3.866908  2.043596
C  100.179464  0.000000  0.744872
C  100.179464  3.866908  2.856418
F  100.179464  6.618709  1.622763
F  100.179464  2.751800  3.734309
F  100.179464  1.115108  1.622763
F  100.179464  4.982017  3.734309
H  98.911369  6.856655  3.520404
H  98.911369  2.989747  1.408837
H  98.911369  0.877162  3.520404
H  98.911369  4.744070  1.408837
C  101.447558  0.000000  4.155158
C  101.447558  3.866908  2.043596
C  102.715653  0.000000  0.744872
C  102.715653  3.866908  2.856418
F  102.715653  6.618709  1.622763
F  102.715653  2.751800  3.734309
F  102.715653  1.115108  1.622763
F  102.715653  4.982017  3.734309
H  101.447558  6.856655  3.520404
H  101.447558  2.989747  1.408837
H  101.447558  0.877162  3.520404
H  101.447558  4.744070  1.408837
C  103.983747  0.000000  4.155158
C  103.983747  3.866908  2.043596
C  105.251842  0.000000  0.744872
C  105.251842  3.866908  2.856418
F  105.251842  6.618709  1.622763
F  105.251842  2.751800  3.734309
F  105.251842  1.115108  1.622763
F  105.251842  4.982017  3.734309
H  103.983747  6.856655  3.520404
H  103.983747  2.989747  1.408837
H  103.983747  0.877162  3.520404
H  103.983747  4.744070  1.408837
C  106.519936  0.000000  4.155158
C  106.519936  3.866908  2.043596
C  107.788031  0.000000  0.744872
C  107.788031  3.866908  2.856418
F  107.788031  6.618709  1.622763
F  107.788031  2.751800  3.734309
F  107.788031  1.115108  1.622763
F  107.788031  4.982017  3.734309
H  106.519936  6.856655  3.520404
H  106.519936  2.989747  1.408837
H  106.519936  0.877162  3.520404
H  106.519936  4.744070  1.408837
C  109.056125  0.000000  4.155158
C  109.056125  3.866908  2.043596
C  110.324220  0.000000  0.744872
C  110.324220  3.866908  2.856418
F  110.324220  6.618709  1.622763
F  110.324220  2.751800  3.734309
F  110.324220  1.115108  1.622763
F  110.324220  4.982017  3.734309
H  109.056125  6.856655  3.520404
H  109.056125  2.989747  1.408837
H  109.056125  0.877162  3.520404
H  109.056125  4.744070  1.408837
C  111.592314  0.000000  4.155158
C  111.592314  3.866908  2.043596
C  112.860409  0.000000  0.744872
C  112.860409  3.866908  2.856418
F  112.860409  6.618709  1.622763
F  112.860409  2.751800  3.734309
F  112.860409  1.115108  1.622763
F  112.860409  4.982017  3.734309
H  111.592314  6.856655  3.520404
H  111.592314  2.989747  1.408837
H  111.592314  0.877162  3.520404
H  111.592314  4.744070  1.408837
C  114.128503  0.000000  4.155158
C  114.128503  3.866908  2.043596
C  115.396598  0.000000  0.744872
C  115.396598  3.866908  2.856418
F  115.396598  6.618709  1.622763
F  115.396598  2.751800  3.734309
F  115.396598  1.115108  1.622763
F  115.396598  4.982017  3.734309
H  114.128503  6.856655  3.520404
H  114.128503  2.989747  1.408837
H  114.128503  0.877162  3.520404
H  114.128503  4.744070  1.408837
C  116.664692  0.000000  4.155158
C  116.664692  3.866908  2.043596
C  117.932786  0.000000  0.744872
C  117.932786  3.866908  2.856418
F  117.932786  6.618709  1.622763
F  117.932786  2.751800  3.734309
F  117.932786  1.115108  1.622763
F  117.932786  4.982017  3.734309
H  116.664692  6.856655  3.520404
H  116.664692  2.989747  1.408837
H  116.664692  0.877162  3.520404
H  116.664692  4.744070  1.408837
C  119.200881  0.000000  4.155158
C  119.200881  3.866908  2.043596
C  120.468975  0.000000  0.744872
C  120.468975  3.866908  2.856418
F  120.468975  6.618709  1.622763
F  120.468975  2.751800  3.734309
F  120.468975  1.115108  1.622763
F  120.468975  4.982017  3.734309
H  119.200881  6.856655  3.520404
H  119.200881  2.989747  1.408837
H  119.200881  0.877162  3.520404
H  119.200881  4.744070  1.408837
C  121.737070  0.000000  4.155158
C  121.737070  3.866908  2.043596
C  123.005164  0.000000  0.744872
C  123.005164  3.866908  2.856418
F  123.005164  6.618709  1.622763
F  123.005164  2.751800  3.734309
F  123.005164  1.115108  1.622763
F  123.005164  4.982017  3.734309
H  121.737070  6.856655  3.520404
H  121.737070  2.989747  1.408837
H  121.737070  0.877162  3.520404
H  121.737070  4.744070  1.408837
C  124.273259  0.000000  4.155158
C  124.273259  3.866908  2.043596
C  125.541353  0.000000  0.744872
C  125.541353  3.866908  2.856418
F  125.541353  6.618709  1.622763
F  125.541353  2.751800  3.734309
F  125.541353  1.115108  1.622763
F  125.541353  4.982017  3.734309
H  124.273259  6.856655  3.520404
H  124.273259  2.989747  1.408837
H  124.273259  0.877162  3.520404
H  124.273259  4.744070  1.408837
C  126.809448  0.000000  4.155158
C  126.809448  3.866908  2.043596
C  128.077542  0.000000  0.744872
C  128.077542  3.866908  2.856418
F  128.077542  6.618709  1.622763
F  128.077542  2.751800  3.734309
F  128.077542  1.115108  1.622763
F  128.077542  4.982017  3.734309
H  126.809448  6.856655  3.520404
H  126.809448  2.989747  1.408837
H  126.809448  0.877162  3.520404
H  126.809448  4.744070  1.408837
C  129.345637  0.000000  4.155158
C  129.345637  3.866908  2.043596
C  130.613731  0.000000  0.744872
C  130.613731  3.866908  2.856418
F  130.613731  6.618709  1.622763
F  130.613731  2.751800  3.734309
F  130.613731  1.115108  1.622763
F  130.613731  4.982017  3.734309
H  129.345637  6.856655  3.520404
H  129.345637  2.989747  1.408837
H  129.345637  0.877162  3.520404
H  129.345637  4.744070  1.408837
C  131.881826  0.000000  4.155158
C  131.881826  3.866908  2.043596
C  133.149920  0.000000  0.744872
C  133.149920  3.866908  2.856418
F  133.149920  6.618709  1.622763
F  133.149920  2.751800  3.734309
F  133.149920  1.115108  1.622763
F  133.149920  4.982017  3.734309
H  131.881826  6.856655  3.520404
H  131.881826  2.989747  1.408837
H  131.881826  0.877162  3.520404
H  131.881826  4.744070  1.408837
C  134.418015  0.000000  4.155158
C  134.418015  3.866908  2.043596
C  135.686109  0.000000  0.744872
C  135.686109  3.866908  2.856418
F  135.686109  6.618709  1.622763
F  135.686109  2.751800  3.734309
F  135.686109  1.115108  1.622763
F  135.686109  4.982017  3.734309
H  134.418015  6.856655  3.520404
H  134.418015  2.989747  1.408837
H  134.418015  0.877162  3.520404
H  134.418015  4.744070  1.408837
C  136.954204  0.000000  4.155158
C  136.954204  3.866908  2.043596
C  138.222298  0.000000  0.744872
C  138.222298  3.866908  2.856418
F  138.222298  6.618709  1.622763
F  138.222298  2.751800  3.734309
F  138.222298  1.115108  1.622763
F  138.222298  4.982017  3.734309
H  136.954204  6.856655  3.520404
H  136.954204  2.989747  1.408837
H  136.954204  0.877162  3.520404
H  136.954204  4.744070  1.408837
C  139.490393  0.000000  4.155158
C  139.490393  3.866908  2.043596
C  140.758487  0.000000  0.744872
C  140.758487  3.866908  2.856418
F  140.758487  6.618709  1.622763
F  140.758487  2.751800  3.734309
F  140.758487  1.115108  1.622763
F  140.758487  4.982017  3.734309
H  139.490393  6.856655  3.520404
H  139.490393  2.989747  1.408837
H  139.490393  0.877162  3.520404
H  139.490393  4.744070  1.408837
C  142.026582  0.000000  4.155158
C  142.026582  3.866908  2.043596
C  143.294676  0.000000  0.744872
C  143.294676  3.866908  2.856418
F  143.294676  6.618709  1.622763
F  143.294676  2.751800  3.734309
F  143.294676  1.115108  1.622763
F  143.294676  4.982017  3.734309
H  142.026582  6.856655  3.520404
H  142.026582  2.989747  1.408837
H  142.026582  0.877162  3.520404
H  142.026582  4.744070  1.408837
C  144.562771  0.000000  4.155158
C  144.562771  3.866908  2.043596
C  145.830865  0.000000  0.744872
C  145.830865  3.866908  2.856418
F  145.830865  6.618709  1.622763
F  145.830865  2.751800  3.734309
F  145.830865  1.115108  1.622763
F  145.830865  4.982017  3.734309
H  144.562771  6.856655  3.520404
H  144.562771  2.989747  1.408837
H  144.562771  0.877162  3.520404
H  144.562771  4.744070  1.408837
C  147.098959  0.000000  4.155158
C  147.098959  3.866908  2.043596
C  148.367054  0.000000  0.744872
C  148.367054  3.866908  2.856418
F  148.367054  6.618709  1.622763
F  148.367054  2.751800  3.734309
F  148.367054  1.115108  1.622763
F  148.367054  4.982017  3.734309
H  147.098959  6.856655  3.520404
H  147.098959  2.989747  1.408837
H  147.098959  0.877162  3.520404
H  147.098959  4.744070  1.408837
C  149.635148  0.000000  4.155158
C  149.635148  3.866908  2.043596
C  150.903243  0.000000  0.744872
C  150.903243  3.866908  2.856418
F  150.903243  6.618709  1.622763
F  150.903243  2.751800  3.734309
F  150.903243  1.115108  1.622763
F  150.903243  4.982017  3.734309
H  149.635148  6.856655  3.520404
H  149.635148  2.989747  1.408837
H  149.635148  0.877162  3.520404
H  149.635148  4.744070  1.408837
C  152.171337  0.000000  4.155158
C  152.171337  3.866908  2.043596
C  153.439432  0.000000  0.744872
C  153.439432  3.866908  2.856418
F  153.439432  6.618709  1.622763
F  153.439432  2.751800  3.734309
F  153.439432  1.115108  1.622763
F  153.439432  4.982017  3.734309
H  152.171337  6.856655  3.520404
H  152.171337  2.989747  1.408837
H  152.171337  0.877162  3.520404
H  152.171337  4.744070  1.408837
C  154.707526  0.000000  4.155158
C  154.707526  3.866908  2.043596
C  155.975621  0.000000  0.744872
C  155.975621  3.866908  2.856418
F  155.975621  6.618709  1.622763
F  155.975621  2.751800  3.734309
F  155.975621  1.115108  1.622763
F  155.975621  4.982017  3.734309
H  154.707526  6.856655  3.520404
H  154.707526  2.989747  1.408837
H  154.707526  0.877162  3.520404
H  154.707526  4.744070  1.408837
C  157.243715  0.000000  4.155158
C  157.243715  3.866908  2.043596
C  158.511810  0.000000  0.744872
C  158.511810  3.866908  2.856418
F  158.511810  6.618709  1.622763
F  158.511810  2.751800  3.734309
F  158.511810  1.115108  1.622763
F  158.511810  4.982017  3.734309
H  157.243715  6.856655  3.520404
H  157.243715  2.989747  1.408837
H  157.243715  0.877162  3.520404
H  157.243715  4.744070  1.408837
C  159.779904  0.000000  4.155158
C  159.779904  3.866908  2.043596
C  161.047999  0.000000  0.744872
C  161.047999  3.866908  2.856418
F  161.047999  6.618709  1.622763
F  161.047999  2.751800  3.734309
F  161.047999  1.115108  1.622763
F  161.047999  4.982017  3.734309
H  159.779904  6.856655  3.520404
H  159.779904  2.989747  1.408837
H  159.779904  0.877162  3.520404
H  159.779904  4.744070  1.408837
C  162.316093  0.000000  4.155158
C  162.316093  3.866908  2.043596
C  163.584188  0.000000  0.744872
C  163.584188  3.866908  2.856418
F  163.584188  6.618709  1.622763
F  163.584188  2.751800  3.734309
F  163.584188  1.115108  1.622763
F  163.584188  4.982017  3.734309
H  162.316093  6.856655  3.520404
H  162.316093  2.989747  1.408837
H  162.316093  0.877162  3.520404
H  162.316093  4.744070  1.408837
C  164.852282  0.000000  4.155158
C  164.852282  3.866908  2.043596
C  166.120377  0.000000  0.744872
C  166.120377  3.866908  2.856418
F  166.120377  6.618709  1.622763
F  166.120377  2.751800  3.734309
F  166.120377  1.115108  1.622763
F  166.120377  4.982017  3.734309
H  164.852282  6.856655  3.520404
H  164.852282  2.989747  1.408837
H  164.852282  0.877162  3.520404
H  164.852282  4.744070  1.408837
C  167.388471  0.000000  4.155158
C  167.388471  3.866908  2.043596
C  168.656566  0.000000  0.744872
C  168.656566  3.866908  2.856418
F  168.656566  6.618709  1.622763
F  168.656566  2.751800  3.734309
F  168.656566  1.115108  1.622763
F  168.656566  4.982017  3.734309
H  167.388471  6.856655  3.520404
H  167.388471  2.989747  1.408837
H  167.388471  0.877162  3.520404
H  167.388471  4.744070  1.408837
C  169.924660  0.000000  4.155158
C  169.924660  3.866908  2.043596
C  171.192755  0.000000  0.744872
C  171.192755  3.866908  2.856418
F  171.192755  6.618709  1.622763
F  171.192755  2.751800  3.734309
F  171.192755  1.115108  1.622763
F  171.192755  4.982017  3.734309
H  169.924660  6.856655  3.520404
H  169.924660  2.989747  1.408837
H  169.924660  0.877162  3.520404
H  169.924660  4.744070  1.408837
C  172.460849  0.000000  4.155158
C  172.460849  3.866908  2.043596
C  173.728943  0.000000  0.744872
C  173.728943  3.866908  2.856418
F  173.728943  6.618709  1.622763
F  173.728943  2.751800  3.734309
F  173.728943  1.115108  1.622763
F  173.728943  4.982017  3.734309
H  172.460849  6.856655  3.520404
H  172.460849  2.989747  1.408837
H  172.460849  0.877162  3.520404
H  172.460849  4.744070  1.408837
C  174.997038  0.000000  4.155158
C  174.997038  3.866908  2.043596
C  176.265132  0.000000  0.744872
C  176.265132  3.866908  2.856418
F  176.265132  6.618709  1.622763
F  176.265132  2.751800  3.734309
F  176.265132  1.115108  1.622763
F  176.265132  4.982017  3.734309
H  174.997038  6.856655  3.520404
H  174.997038  2.989747  1.408837
H  174.997038  0.877162  3.520404
H  174.997038  4.744070  1.408837
C  177.533227  0.000000  4.155158
C  177.533227  3.866908  2.043596
C  178.801321  0.000000  0.744872
C  178.801321  3.866908  2.856418
F  178.801321  6.618709  1.622763
F  178.801321  2.751800  3.734309
F  178.801321  1.115108  1.622763
F  178.801321  4.982017  3.734309
H  177.533227  6.856655  3.520404
H  177.533227  2.989747  1.408837
H  177.533227  0.877162  3.520404
H  177.533227  4.744070  1.408837
C  180.069416  0.000000  4.155158
C  180.069416  3.866908  2.043596
C  181.337510  0.000000  0.744872
C  181.337510  3.866908  2.856418
F  181.337510  6.618709  1.622763
F  181.337510  2.751800  3.734309
F  181.337510  1.115108  1.622763
F  181.337510  4.982017  3.734309
H  180.069416  6.856655  3.520404
H  180.069416  2.989747  1.408837
H  180.069416  0.877162  3.520404
H  180.069416  4.744070  1.408837
C  182.605605  0.000000  4.155158
C  182.605605  3.866908  2.043596
C  183.873699  0.000000  0.744872
C  183.873699  3.866908  2.856418
F  183.873699  6.618709  1.622763
F  183.873699  2.751800  3.734309
F  183.873699  1.115108  1.622763
F  183.873699  4.982017  3.734309
H  182.605605  6.856655  3.520404
H  182.605605  2.989747  1.408837
H  182.605605  0.877162  3.520404
H  182.605605  4.744070  1.408837
C  185.141794  0.000000  4.155158
C  185.141794  3.866908  2.043596
C  186.409888  0.000000  0.744872
C  186.409888  3.866908  2.856418
F  186.409888  6.618709  1.622763
F  186.409888  2.751800  3.734309
F  186.409888  1.115108  1.622763
F  186.409888  4.982017  3.734309
H  185.141794  6.856655  3.520404
H  185.141794  2.989747  1.408837
H  185.141794  0.877162  3.520404
H  185.141794  4.744070  1.408837
C  187.677983  0.000000  4.155158
C  187.677983  3.866908  2.043596
C  188.946077  0.000000  0.744872
C  188.946077  3.866908  2.856418
F  188.946077  6.618709  1.622763
F  188.946077  2.751800  3.734309
F  188.946077  1.115108  1.622763
F  188.946077  4.982017  3.734309
H  187.677983  6.856655  3.520404
H  187.677983  2.989747  1.408837
H  187.677983  0.877162  3.520404
H  187.677983  4.744070  1.408837
C  190.214172  0.000000  4.155158
C  190.214172  3.866908  2.043596
C  191.482266  0.000000  0.744872
C  191.482266  3.866908  2.856418
F  191.482266  6.618709  1.622763
F  191.482266  2.751800  3.734309
F  191.482266  1.115108  1.622763
F  191.482266  4.982017  3.734309
H  190.214172  6.856655  3.520404
H  190.214172  2.989747  1.408837
H  190.214172  0.877162  3.520404
H  190.214172  4.744070  1.408837
C  192.750361  0.000000  4.155158
C  192.750361  3.866908  2.043596
C  194.018455  0.000000  0.744872
C  194.018455  3.866908  2.856418
F  194.018455  6.618709  1.622763
F  194.018455  2.751800  3.734309
F  194.018455  1.115108  1.622763
F  194.018455  4.982017  3.734309
H  192.750361  6.856655  3.520404
H  192.750361  2.989747  1.408837
H  192.750361  0.877162  3.520404
H  192.750361  4.744070  1.408837
C  195.286550  0.000000  4.155158
C  195.286550  3.866908  2.043596
C  196.554644  0.000000  0.744872
C  196.554644  3.866908  2.856418
F  196.554644  6.618709  1.622763
F  196.554644  2.751800  3.734309
F  196.554644  1.115108  1.622763
F  196.554644  4.982017  3.734309
H  195.286550  6.856655  3.520404
H  195.286550  2.989747  1.408837
H  195.286550  0.877162  3.520404
H  195.286550  4.744070  1.408837
C  197.822739  0.000000  4.155158
C  197.822739  3.866908  2.043596
C  199.090833  0.000000  0.744872
C  199.090833  3.866908  2.856418
F  199.090833  6.618709  1.622763
F  199.090833  2.751800  3.734309
F  199.090833  1.115108  1.622763
F  199.090833  4.982017  3.734309
H  197.822739  6.856655  3.520404
H  197.822739  2.989747  1.408837
H  197.822739  0.877162  3.520404
H  197.822739  4.744070  1.408837
C  200.358928  0.000000  4.155158
C  200.358928  3.866908  2.043596
C  201.627022  0.000000  0.744872
C  201.627022  3.866908  2.856418
F  201.627022  6.618709  1.622763
F  201.627022  2.751800  3.734309
F  201.627022  1.115108  1.622763
F  201.627022  4.982017  3.734309
H  200.358928  6.856655  3.520404
H  200.358928  2.989747  1.408837
H  200.358928  0.877162  3.520404
H  200.358928  4.744070  1.408837
C  202.895116  0.000000  4.155158
C  202.895116  3.866908  2.043596
C  204.163211  0.000000  0.744872
C  204.163211  3.866908  2.856418
F  204.163211  6.618709  1.622763
F  204.163211  2.751800  3.734309
F  204.163211  1.115108  1.622763
F  204.163211  4.982017  3.734309
H  202.895116  6.856655  3.520404
H  202.895116  2.989747  1.408837
H  202.895116  0.877162  3.520404
H  202.895116  4.744070  1.408837
C  205.431305  0.000000  4.155158
C  205.431305  3.866908  2.043596
C  206.699400  0.000000  0.744872
C  206.699400  3.866908  2.856418
F  206.699400  6.618709  1.622763
F  206.699400  2.751800  3.734309
F  206.699400  1.115108  1.622763
F  206.699400  4.982017  3.734309
H  205.431305  6.856655  3.520404
H  205.431305  2.989747  1.408837
H  205.431305  0.877162  3.520404
H  205.431305  4.744070  1.408837
C  207.967494  0.000000  4.155158
C  207.967494  3.866908  2.043596
C  209.235589  0.000000  0.744872
C  209.235589  3.866908  2.856418
F  209.235589  6.618709  1.622763
F  209.235589  2.751800  3.734309
F  209.235589  1.115108  1.622763
F  209.235589  4.982017  3.734309
H  207.967494  6.856655  3.520404
H  207.967494  2.989747  1.408837
H  207.967494  0.877162  3.520404
H  207.967494  4.744070  1.408837
C  210.503683  0.000000  4.155158
C  210.503683  3.866908  2.043596
C  211.771778  0.000000  0.744872
C  211.771778  3.866908  2.856418
F  211.771778  6.618709  1.622763
F  211.771778  2.751800  3.734309
F  211.771778  1.115108  1.622763
F  211.771778  4.982017  3.734309
H  210.503683  6.856655  3.520404
H  210.503683  2.989747  1.408837
H  210.503683  0.877162  3.520404
H  210.503683  4.744070  1.408837
C  213.039872  0.000000  4.155158
C  213.039872  3.866908  2.043596
C  214.307967  0.000000  0.744872
C  214.307967  3.866908  2.856418
F  214.307967  6.618709  1.622763
F  214.307967  2.751800  3.734309
F  214.307967  1.115108  1.622763
F  214.307967  4.982017  3.734309
H  213.039872  6.856655  3.520404
H  213.039872  2.989747  1.408837
H  213.039872  0.877162  3.520404
H  213.039872  4.744070  1.408837
C  215.576061  0.000000  4.155158
C  215.576061  3.866908  2.043596
C  216.844156  0.000000  0.744872
C  216.844156  3.866908  2.856418
F  216.844156  6.618709  1.622763
F  216.844156  2.751800  3.734309
F  216.844156  1.115108  1.622763
F  216.844156  4.982017  3.734309
H  215.576061  6.856655  3.520404
H  215.576061  2.989747  1.408837
H  215.576061  0.877162  3.520404
H  215.576061  4.744070  1.408837
C  218.112250  0.000000  4.155158
C  218.112250  3.866908  2.043596
C  219.380345  0.000000  0.744872
C  219.380345  3.866908  2.856418
F  219.380345  6.618709  1.622763
F  219.380345  2.751800  3.734309
F  219.380345  1.115108  1.622763
F  219.380345  4.982017  3.734309
H  218.112250  6.856655  3.520404
H  218.112250  2.989747  1.408837
H  218.112250  0.877162  3.520404
H  218.112250  4.744070  1.408837
C  220.648439  0.000000  4.155158
C  220.648439  3.866908  2.043596
C  221.916534  0.000000  0.744872
C  221.916534  3.866908  2.856418
F  221.916534  6.618709  1.622763
F  221.916534  2.751800  3.734309
F  221.916534  1.115108  1.622763
F  221.916534  4.982017  3.734309
H  220.648439  6.856655  3.520404
H  220.648439  2.989747  1.408837
H  220.648439  0.877162  3.520404
H  220.648439  4.744070  1.408837
C  223.184628  0.000000  4.155158
C  223.184628  3.866908  2.043596
C  224.452723  0.000000  0.744872
C  224.452723  3.866908  2.856418
F  224.452723  6.618709  1.622763
F  224.452723  2.751800  3.734309
F  224.452723  1.115108  1.622763
F  224.452723  4.982017  3.734309
H  223.184628  6.856655  3.520404
H  223.184628  2.989747  1.408837
H  223.184628  0.877162  3.520404
H  223.184628  4.744070  1.408837
C  225.720817  0.000000  4.155158
C  225.720817  3.866908  2.043596
C  226.988912  0.000000  0.744872
C  226.988912  3.866908  2.856418
F  226.988912  6.618709  1.622763
F  226.988912  2.751800  3.734309
F  226.988912  1.115108  1.622763
F  226.988912  4.982017  3.734309
H  225.720817  6.856655  3.520404
H  225.720817  2.989747  1.408837
H  225.720817  0.877162  3.520404
H  225.720817  4.744070  1.408837
C  228.257006  0.000000  4.155158
C  228.257006  3.866908  2.043596
C  229.525101  0.000000  0.744872
C  229.525101  3.866908  2.856418
F  229.525101  6.618709  1.622763
F  229.525101  2.751800  3.734309
F  229.525101  1.115108  1.622763
F  229.525101  4.982017  3.734309
H  228.257006  6.856655  3.520404
H  228.257006  2.989747  1.408837
H  228.257006  0.877162  3.520404
H  228.257006  4.744070  1.408837
C  230.793195  0.000000  4.155158
C  230.793195  3.866908  2.043596
C  232.061289  0.000000  0.744872
C  232.061289  3.866908  2.856418
F  232.061289  6.618709  1.622763
F  232.061289  2.751800  3.734309
F  232.061289  1.115108  1.622763
F  232.061289  4.982017  3.734309
H  230.793195  6.856655  3.520404
H  230.793195  2.989747  1.408837
H  230.793195  0.877162  3.520404
H  230.793195  4.744070  1.408837
C  233.329384  0.000000  4.155158
C  233.329384  3.866908  2.043596
C  234.597478  0.000000  0.744872
C  234.597478  3.866908  2.856418
F  234.597478  6.618709  1.622763
F  234.597478  2.751800  3.734309
F  234.597478  1.115108  1.622763
F  234.597478  4.982017  3.734309
H  233.329384  6.856655  3.520404
H  233.329384  2.989747  1.408837
H  233.329384  0.877162  3.520404
H  233.329384  4.744070  1.408837
C  235.865573  0.000000  4.155158
C  235.865573  3.866908  2.043596
C  237.133667  0.000000  0.744872
C  237.133667  3.866908  2.856418
F  237.133667  6.618709  1.622763
F  237.133667  2.751800  3.734309
F  237.133667  1.115108  1.622763
F  237.133667  4.982017  3.734309
H  235.865573  6.856655  3.520404
H  235.865573  2.989747  1.408837
H  235.865573  0.877162  3.520404
H  235.865573  4.744070  1.408837
C  238.401762  0.000000  4.155158
C  238.401762  3.866908  2.043596
C  239.669856  0.000000  0.744872
C  239.669856  3.866908  2.856418
F  239.669856  6.618709  1.622763
F  239.669856  2.751800  3.734309
F  239.669856  1.115108  1.622763
F  239.669856  4.982017  3.734309
H  238.401762  6.856655  3.520404
H  238.401762  2.989747  1.408837
H  238.401762  0.877162  3.520404
H  238.401762  4.744070  1.408837
C  240.937951  0.000000  4.155158
C  240.937951  3.866908  2.043596
C  242.206045  0.000000  0.744872
C  242.206045  3.866908  2.856418
F  242.206045  6.618709  1.622763
F  242.206045  2.751800  3.734309
F  242.206045  1.115108  1.622763
F  242.206045  4.982017  3.734309
H  240.937951  6.856655  3.520404
H  240.937951  2.989747  1.408837
H  240.937951  0.877162  3.520404
H  240.937951  4.744070  1.408837
