138

H   16.575579   2.460401   53.512372
C   15.794492   2.065503   52.855454
H   14.816187   2.176258   53.333713
H   15.975217   1.000000   52.681129
C   15.812856   2.823926   51.543233
F   17.078560   2.745124   50.973881
F   15.635210   4.174543   51.797976
C   14.745991   2.318689   50.560877
H   13.764181   2.399465   51.049744
H   14.920624   1.245827   50.403243
C   14.666823   3.004845   49.192330
F   15.886284   2.917516   48.551518
F   14.442314   4.350833   49.366387
C   13.551948   2.395072   48.315175
H   12.595137   2.498214   48.842837
H   13.735966   1.318076   48.203348
C   13.408555   3.021956   46.923506
F   14.613691   2.925515   46.258654
F   13.158598   4.365798   47.067645
C   12.292392   2.391437   46.063577
H   11.328014   2.506071   46.574178
H   12.474907   1.312773   45.961610
C   12.164693   3.013538   44.662254
F   13.354361   2.920509   43.981534
F   11.876995   4.344231   44.780984
C   11.080778   2.331633   43.772212
F   9.864803   2.371770   44.453060
H   11.357802   1.276181   43.626008
C   10.889004   3.002148   42.376874
F   12.093348   2.917102   41.722411
F   10.628167   4.333272   42.549520
C   9.770199   2.362885   41.530657
H   8.822945   2.466525   42.073950
H   9.966111   1.287651   41.422704
C   9.625362   2.996243   40.130052
F   10.830926   2.918040   39.468364
F   9.367024   4.340422   40.275477
C   8.519353   2.358777   39.258984
H   7.561100   2.445696   39.788362
H   8.724117   1.288163   39.133176
C   8.375467   3.000713   37.864233
F   9.559757   2.913444   37.185755
F   8.089316   4.337176   37.994258
C   7.237697   2.369407   36.997492
H   6.282703   2.489575   37.532046
F   7.488900   1.004626   36.866193
C   7.096236   2.986659   35.568415
F   8.299301   2.911346   34.923627
F   6.821636   4.323041   35.735139
C   5.999457   2.321874   34.707099
H   5.042181   2.385405   35.242347
H   6.232707   1.255259   34.592500
C   5.832375   2.968415   33.311395
F   7.031930   2.916019   32.638768
F   5.554924   4.310953   33.464193
C   4.738541   2.316374   32.435136
H   3.776962   2.339869   32.965251
H   4.993948   1.259987   32.276573
C   4.572357   2.997225   31.060247
F   5.750714   2.923293   30.359542
F   4.290544   4.326022   31.217246
C   3.464049   2.346200   30.178099
F   2.262270   2.379460   30.879164
H   3.730946   1.293090   29.994928
C   3.252312   3.025260   28.793426
F   4.457895   2.951000   28.138152
F   2.963037   4.369916   28.964362
C   2.151519   2.417602   27.965718
H   1.281411   2.038948   28.496485
C   2.151519   2.417602   26.625902
F   1.000000   2.601811   25.946659
C   3.348762   2.211683   25.732793
H   4.258122   2.423252   26.308265
H   3.426788   1.162456   25.413484
C   3.337207   3.103956   24.481599
F   2.186382   2.919217   23.762791
F   3.339412   4.421423   24.886289
C   4.575971   2.902007   23.555591
H   5.466183   3.272714   24.087635
F   4.791520   1.534751   23.343218
C   4.488697   3.620773   22.168739
F   3.357804   3.233332   21.504884
F   4.339269   4.967333   22.415382
C   5.743781   3.351003   21.311887
H   6.620616   3.725630   21.856154
H   5.863622   2.263065   21.223521
C   5.720061   3.989232   19.907930
F   4.581627   3.588394   19.238670
F   5.609492   5.352967   20.051161
C   6.957210   3.660112   19.038229
H   7.869623   3.999149   19.544233
H   7.037364   2.569556   18.929365
C   6.915697   4.303877   17.636641
F   5.787214   3.909313   16.960162
F   6.846866   5.663297   17.763733
C   8.138689   3.933831   16.737205
F   9.303432   4.289880   17.416774
H   8.150165   2.842931   16.587378
C   8.154183   4.629257   15.335254
F   7.012770   4.238350   14.679805
F   8.068345   5.983849   15.501393
C   9.401056   4.287878   14.491976
H   10.287852   4.608728   15.053542
H   9.466629   3.196901   14.382495
C   9.397168   4.945872   13.091352
F   8.258274   4.565186   12.413308
F   9.291558   6.311752   13.236698
C   10.639040   4.628549   12.223899
H   11.540357   4.984705   12.740397
H   10.748404   3.543880   12.094450
C   10.590712   5.283961   10.828266
F   9.465858   4.889198   10.156733
F   10.512329   6.647929   10.961296
C   11.848882   4.976634   9.951686
H   12.743214   5.335674   10.483231
F   11.962477   3.593295   9.806446
C   11.819502   5.625670   8.532568
F   10.685095   5.226105   7.880897
F   11.724602   6.982493   8.713501
C   13.055777   5.303358   7.680268
H   13.950886   5.650594   8.213887
H   13.136918   4.213508   7.588776
C   13.033018   5.948037   6.279465
F   11.899653   5.557561   5.602829
F   12.950971   7.314943   6.413303
C   14.256712   5.614602   5.425247
H   15.166065   5.924142   5.954028
H   14.318655   4.525618   5.297943
C   14.288490   6.256442   4.025827
F   13.197233   5.885561   3.272638
F   14.247596   7.622275   4.090083
C   15.552111   5.798937   3.257265
F   16.683954   6.124294   4.018005
H   15.523480   4.701482   3.165303
C   15.769968   6.384829   1.849079
F   14.766123   5.997091   1.000000
F   15.796339   7.747244   1.860590
H   16.731434   6.015771   1.452028
